File C:\Users\lenovo\OneDrive - IIT Kanpur\Desktop\descon\ASS 2.$2k was saved on m/d/yy at h:mm:ss
 
TABLE:  "ACTIVE DEGREES OF FREEDOM"
   UX=Yes   UY=Yes   UZ=Yes   RX=Yes   RY=Yes   RZ=Yes
 
TABLE:  "ANALYSIS OPTIONS"
   Solver=Advanced   SolverProc=Auto   Force32Bit=No   StiffCase=None   GeomMod=None   HingeOpt="In Elements"
 
TABLE:  "AREA AUTO MESH ASSIGNMENTS"
   Area=1   MeshType="Points On Edges"   MeshGroup=ALL   PtsFromLine=Yes   PtsFromPt=Yes   LocalEdge=No   LocalFace=No   SuppEdge=No   SuppFace=No   SubMesh=No
   Area=2   MeshType="Points On Edges"   MeshGroup=ALL   PtsFromLine=Yes   PtsFromPt=Yes   LocalEdge=No   LocalFace=No   SuppEdge=No   SuppFace=No   SubMesh=No
   Area=3   MeshType="Points On Edges"   MeshGroup=ALL   PtsFromLine=Yes   PtsFromPt=Yes   LocalEdge=No   LocalFace=No   SuppEdge=No   SuppFace=No   SubMesh=No
 
TABLE:  "AREA SECTION ASSIGNMENTS"
   Area=1   Section=ASEC1   MatProp=Default
   Area=2   Section=ASEC1   MatProp=Default
   Area=3   Section=ASEC1   MatProp=Default
 
TABLE:  "AREA SECTION PROPERTIES"
   Section=ASEC1   Material=A992Fy50   MatAngle=0   AreaType=Shell   Type=Shell-Thin   DrillDOF=Yes   Thickness=1   BendThick=1   Color=Magenta   F11Mod=1   F22Mod=1   F12Mod=1   M11Mod=1   M22Mod=1   M12Mod=1   V13Mod=1   V23Mod=1   MMod=1 _
        WMod=1   Notes="Added 01-01-2018 00:14:16"
   Section=bottom   Material=4000Psi   MatAngle=0   AreaType=Shell   Type=Shell-Thin   DrillDOF=Yes   Thickness=1   BendThick=1   Color=Cyan   F11Mod=1   F22Mod=1   F12Mod=1   M11Mod=1   M22Mod=1   M12Mod=1   V13Mod=1   V23Mod=1   MMod=1 _
        WMod=1   Notes="Added 01-01-2018 00:14:25"
 
TABLE:  "AREA SECTION PROPERTY DESIGN PARAMETERS"
   Section=ASEC1   RebarMat=None   RebarOpt=Default
   Section=bottom   RebarMat=None   RebarOpt=Default
 
TABLE:  "AREA SECTION PROPERTY - TIME DEPENDENT"
   Section=ASEC1   TypeSize=Auto   AutoSFSize=1
   Section=bottom   TypeSize=Auto   AutoSFSize=1
 
TABLE:  "AUTO WAVE 3 - WAVE CHARACTERISTICS - GENERAL"
   WaveChar=Default   WaveType="From Theory"   KinFactor=1   SWaterDepth=45   WaveHeight=18   WavePeriod=12   WaveTheory=Linear
 
TABLE:  "CASE - MODAL 1 - GENERAL"
   Case=MODAL   ModeType=Eigen   MaxNumModes=12   MinNumModes=1   EigenShift=0   EigenCutoff=0   EigenTol=1E-09   AutoShift=Yes
 
TABLE:  "CASE - STATIC 1 - LOAD ASSIGNMENTS"
   Case=DEAD   LoadType="Load pattern"   LoadName=DEAD   LoadSF=1
 
TABLE:  "CONNECTIVITY - AREA"
   Area=1   Joint1=1   Joint2=2   Joint3=10   Joint4=9   GUID=e25f691e-8b12-4225-8d6d-a234635d2ee5
   Area=2   Joint1=2   Joint2=3   Joint3=11   Joint4=10   GUID=efc1e458-1a55-48e2-a19d-91ce05e058c5
   Area=3   Joint1=3   Joint2=4   Joint3=12   Joint4=11   GUID=8ffee001-a37a-430f-8817-23f5ee79e04e
 
TABLE:  "CONNECTIVITY - FRAME"
   Frame=1   JointI=1   JointJ=2   IsCurved=No   GUID=d63af2ec-cb99-43ed-95c6-19547777f8f2
   Frame=2   JointI=2   JointJ=3   IsCurved=No   GUID=38f73ec5-a8f0-42e0-b597-fbf8cce8d54a
   Frame=3   JointI=3   JointJ=4   IsCurved=No   GUID=719c71ee-f0b5-4185-9363-37d8b401676d
   Frame=4   JointI=4   JointJ=5   IsCurved=No   GUID=dd56d2ab-9472-4736-a3d3-ed2366d0c260
   Frame=5   JointI=5   JointJ=6   IsCurved=No   GUID=bcda2773-c7bc-4955-a96d-dae449625425
   Frame=6   JointI=6   JointJ=7   IsCurved=No   GUID=df9bd858-d5f7-468c-a84e-1694274034c6
   Frame=7   JointI=7   JointJ=8   IsCurved=No   GUID=53ca19ea-eed6-4439-bc9d-74a267d29875
   Frame=8   JointI=8   JointJ=1   IsCurved=No   GUID=0f8b705c-2c51-43a2-b0d1-d21ef608ed63
   Frame=9   JointI=1   JointJ=7   IsCurved=No   GUID=361eeaf7-8afc-448c-887b-a5c091607ac9
   Frame=10   JointI=7   JointJ=2   IsCurved=No   GUID=f30f7de6-95a5-44e7-ac67-79e97f79697f
   Frame=11   JointI=2   JointJ=6   IsCurved=No   GUID=4e6a6193-2e76-443d-899b-03f406a026e5
   Frame=12   JointI=6   JointJ=3   IsCurved=No   GUID=5e11a4c4-952c-4f58-8a58-9b0eab1b938a
   Frame=13   JointI=3   JointJ=5   IsCurved=No   GUID=5c8512c4-9832-481a-bc1f-c923a5ca19c4
   Frame=14   JointI=4   JointJ=6   IsCurved=No   GUID=659dafc3-6cf8-4457-86c0-16385b4b49f9
   Frame=15   JointI=3   JointJ=7   IsCurved=No   GUID=c9a56da3-a3fd-4e2b-bb4e-e2a46295800f
   Frame=16   JointI=8   JointJ=2   IsCurved=No   GUID=defdf1b8-042f-4edf-8d55-92191fdeffe7
   Frame=17   JointI=9   JointJ=10   IsCurved=No   GUID=8c89a09b-2c0b-43f6-8019-bade7b78ce66
   Frame=18   JointI=10   JointJ=11   IsCurved=No   GUID=226346b9-47e9-4aef-8a8b-9ed8656cf86d
   Frame=19   JointI=11   JointJ=12   IsCurved=No   GUID=7392da35-26a5-4153-8d36-e34592d8237d
   Frame=20   JointI=12   JointJ=13   IsCurved=No   GUID=beaebaf7-3611-4e5a-a378-52c07078ce9a
   Frame=21   JointI=13   JointJ=14   IsCurved=No   GUID=06f6da22-1c97-4bee-b0cd-0c444acf0a6b
   Frame=22   JointI=14   JointJ=15   IsCurved=No   GUID=3c1db2e9-0f5f-4e99-9669-d7a47c8b74ef
   Frame=23   JointI=15   JointJ=16   IsCurved=No   GUID=10015382-3dc2-4acd-b801-81bf97bc5b01
   Frame=24   JointI=16   JointJ=9   IsCurved=No   GUID=46563a02-24c1-4b04-9221-8fa989bf2f79
   Frame=25   JointI=9   JointJ=15   IsCurved=No   GUID=d5058abf-f6bf-47fa-b872-e39180d429c1
   Frame=26   JointI=15   JointJ=10   IsCurved=No   GUID=e540d5cd-cf5f-41ad-8745-d61703c363f1
   Frame=27   JointI=10   JointJ=14   IsCurved=No   GUID=2b613216-50d8-4636-913c-c43db571837b
   Frame=28   JointI=14   JointJ=11   IsCurved=No   GUID=b03ac235-8416-4aa3-9269-7c65c4740804
   Frame=29   JointI=11   JointJ=13   IsCurved=No   GUID=b397dbd5-ed59-4218-ae11-a8fab6cc3da4
   Frame=30   JointI=12   JointJ=14   IsCurved=No   GUID=bb4ce444-32f0-4a39-9652-dd40953afcf5
   Frame=31   JointI=11   JointJ=15   IsCurved=No   GUID=b6be4204-8ed5-4ee0-82d8-998e435ecc8e
   Frame=32   JointI=16   JointJ=10   IsCurved=No   GUID=3e5eddcb-36c6-4d33-a34a-21351bfd4ce9
   Frame=33   JointI=9   JointJ=1   IsCurved=No   GUID=eef337bf-e381-4729-9ca1-01d263671ae7
   Frame=34   JointI=10   JointJ=2   IsCurved=No   GUID=46f0752c-6d55-4d3c-90e7-859153b4b474
   Frame=35   JointI=11   JointJ=3   IsCurved=No   GUID=ba8aca16-cb19-481c-8caa-d306b29f6cf3
   Frame=36   JointI=12   JointJ=4   IsCurved=No   GUID=e2b021cd-b5cd-43b3-a5ff-214b3968bd0e
   Frame=37   JointI=16   JointJ=8   IsCurved=No   GUID=bcafa3e1-4314-4a59-a9d3-e4c05f3264a7
   Frame=38   JointI=14   JointJ=6   IsCurved=No   GUID=90f6fd98-e757-41fe-8c8d-1d14c7112a2a
   Frame=39   JointI=13   JointJ=5   IsCurved=No   GUID=51ce394d-44ac-4a55-93f9-3a92208d56fc
   Frame=40   JointI=15   JointJ=7   IsCurved=No   GUID=2b25812a-eeb4-47fd-8b9e-ef13add98064
 
TABLE:  "COORDINATE SYSTEMS"
   Name=GLOBAL   Type=Cartesian   X=0   Y=0   Z=0   AboutZ=0   AboutY=0   AboutX=0
 
TABLE:  "DATABASE DOCUMENTATION"
 
TABLE:  "DATABASE FORMAT TYPES"
   UnitsCurr=Yes   OverrideE=No
 
TABLE:  "FRAME AUTO MESH ASSIGNMENTS"
   Frame=1   AutoMesh=Yes   AtJoints=Yes   AtFrames=No   NumSegments=0   MaxLength=0   MaxDegrees=0
   Frame=2   AutoMesh=Yes   AtJoints=Yes   AtFrames=No   NumSegments=0   MaxLength=0   MaxDegrees=0
   Frame=3   AutoMesh=Yes   AtJoints=Yes   AtFrames=No   NumSegments=0   MaxLength=0   MaxDegrees=0
   Frame=4   AutoMesh=Yes   AtJoints=Yes   AtFrames=No   NumSegments=0   MaxLength=0   MaxDegrees=0
   Frame=5   AutoMesh=Yes   AtJoints=Yes   AtFrames=No   NumSegments=0   MaxLength=0   MaxDegrees=0
   Frame=6   AutoMesh=Yes   AtJoints=Yes   AtFrames=No   NumSegments=0   MaxLength=0   MaxDegrees=0
   Frame=7   AutoMesh=Yes   AtJoints=Yes   AtFrames=No   NumSegments=0   MaxLength=0   MaxDegrees=0
   Frame=8   AutoMesh=Yes   AtJoints=Yes   AtFrames=No   NumSegments=0   MaxLength=0   MaxDegrees=0
   Frame=9   AutoMesh=Yes   AtJoints=Yes   AtFrames=No   NumSegments=0   MaxLength=0   MaxDegrees=0
   Frame=10   AutoMesh=Yes   AtJoints=Yes   AtFrames=No   NumSegments=0   MaxLength=0   MaxDegrees=0
   Frame=11   AutoMesh=Yes   AtJoints=Yes   AtFrames=No   NumSegments=0   MaxLength=0   MaxDegrees=0
   Frame=12   AutoMesh=Yes   AtJoints=Yes   AtFrames=No   NumSegments=0   MaxLength=0   MaxDegrees=0
   Frame=13   AutoMesh=Yes   AtJoints=Yes   AtFrames=No   NumSegments=0   MaxLength=0   MaxDegrees=0
   Frame=14   AutoMesh=Yes   AtJoints=Yes   AtFrames=No   NumSegments=0   MaxLength=0   MaxDegrees=0
   Frame=15   AutoMesh=Yes   AtJoints=Yes   AtFrames=No   NumSegments=0   MaxLength=0   MaxDegrees=0
   Frame=16   AutoMesh=Yes   AtJoints=Yes   AtFrames=No   NumSegments=0   MaxLength=0   MaxDegrees=0
   Frame=17   AutoMesh=Yes   AtJoints=Yes   AtFrames=No   NumSegments=0   MaxLength=0   MaxDegrees=0
   Frame=18   AutoMesh=Yes   AtJoints=Yes   AtFrames=No   NumSegments=0   MaxLength=0   MaxDegrees=0
   Frame=19   AutoMesh=Yes   AtJoints=Yes   AtFrames=No   NumSegments=0   MaxLength=0   MaxDegrees=0
   Frame=20   AutoMesh=Yes   AtJoints=Yes   AtFrames=No   NumSegments=0   MaxLength=0   MaxDegrees=0
# ... 20 like lines cut
 
TABLE:  "FRAME DESIGN PROCEDURES"
   Frame=1   DesignProc="From Material"
   Frame=2   DesignProc="From Material"
   Frame=3   DesignProc="From Material"
   Frame=4   DesignProc="From Material"
   Frame=5   DesignProc="From Material"
   Frame=6   DesignProc="From Material"
   Frame=7   DesignProc="From Material"
   Frame=8   DesignProc="From Material"
   Frame=9   DesignProc="From Material"
   Frame=10   DesignProc="From Material"
   Frame=11   DesignProc="From Material"
   Frame=12   DesignProc="From Material"
   Frame=13   DesignProc="From Material"
   Frame=14   DesignProc="From Material"
   Frame=15   DesignProc="From Material"
   Frame=16   DesignProc="From Material"
   Frame=17   DesignProc="From Material"
   Frame=18   DesignProc="From Material"
   Frame=19   DesignProc="From Material"
   Frame=20   DesignProc="From Material"
# ... 20 like lines cut
 
TABLE:  "FRAME LOAD TRANSFER OPTIONS"
   Frame=1   Transfer=Yes
   Frame=2   Transfer=Yes
   Frame=3   Transfer=Yes
   Frame=4   Transfer=Yes
   Frame=5   Transfer=Yes
   Frame=6   Transfer=Yes
   Frame=7   Transfer=Yes
   Frame=8   Transfer=Yes
   Frame=9   Transfer=Yes
   Frame=10   Transfer=Yes
   Frame=11   Transfer=Yes
   Frame=12   Transfer=Yes
   Frame=13   Transfer=Yes
   Frame=14   Transfer=Yes
   Frame=15   Transfer=Yes
   Frame=16   Transfer=Yes
   Frame=17   Transfer=Yes
   Frame=18   Transfer=Yes
   Frame=19   Transfer=Yes
   Frame=20   Transfer=Yes
# ... 20 like lines cut
 
TABLE:  "FRAME OUTPUT STATION ASSIGNMENTS"
   Frame=1   StationType=MaxStaSpcg   MaxStaSpcg=2   AddAtElmInt=Yes   AddAtPtLoad=Yes
   Frame=2   StationType=MaxStaSpcg   MaxStaSpcg=2   AddAtElmInt=Yes   AddAtPtLoad=Yes
   Frame=3   StationType=MaxStaSpcg   MaxStaSpcg=2   AddAtElmInt=Yes   AddAtPtLoad=Yes
   Frame=4   StationType=MinNumSta   MinNumSta=3   AddAtElmInt=Yes   AddAtPtLoad=Yes
   Frame=5   StationType=MinNumSta   MinNumSta=3   AddAtElmInt=Yes   AddAtPtLoad=Yes
   Frame=6   StationType=MaxStaSpcg   MaxStaSpcg=2   AddAtElmInt=Yes   AddAtPtLoad=Yes
   Frame=7   StationType=MinNumSta   MinNumSta=3   AddAtElmInt=Yes   AddAtPtLoad=Yes
   Frame=8   StationType=MinNumSta   MinNumSta=3   AddAtElmInt=Yes   AddAtPtLoad=Yes
   Frame=9   StationType=MinNumSta   MinNumSta=3   AddAtElmInt=Yes   AddAtPtLoad=Yes
   Frame=10   StationType=MinNumSta   MinNumSta=3   AddAtElmInt=Yes   AddAtPtLoad=Yes
   Frame=11   StationType=MinNumSta   MinNumSta=3   AddAtElmInt=Yes   AddAtPtLoad=Yes
   Frame=12   StationType=MinNumSta   MinNumSta=3   AddAtElmInt=Yes   AddAtPtLoad=Yes
   Frame=13   StationType=MinNumSta   MinNumSta=3   AddAtElmInt=Yes   AddAtPtLoad=Yes
   Frame=14   StationType=MinNumSta   MinNumSta=3   AddAtElmInt=Yes   AddAtPtLoad=Yes
   Frame=15   StationType=MinNumSta   MinNumSta=3   AddAtElmInt=Yes   AddAtPtLoad=Yes
   Frame=16   StationType=MinNumSta   MinNumSta=3   AddAtElmInt=Yes   AddAtPtLoad=Yes
   Frame=17   StationType=MaxStaSpcg   MaxStaSpcg=2   AddAtElmInt=Yes   AddAtPtLoad=Yes
   Frame=18   StationType=MaxStaSpcg   MaxStaSpcg=2   AddAtElmInt=Yes   AddAtPtLoad=Yes
   Frame=19   StationType=MaxStaSpcg   MaxStaSpcg=2   AddAtElmInt=Yes   AddAtPtLoad=Yes
   Frame=20   StationType=MinNumSta   MinNumSta=3   AddAtElmInt=Yes   AddAtPtLoad=Yes
   Frame=21   StationType=MinNumSta   MinNumSta=3   AddAtElmInt=Yes   AddAtPtLoad=Yes
   Frame=22   StationType=MaxStaSpcg   MaxStaSpcg=2   AddAtElmInt=Yes   AddAtPtLoad=Yes
   Frame=23   StationType=MinNumSta   MinNumSta=3   AddAtElmInt=Yes   AddAtPtLoad=Yes
   Frame=24   StationType=MinNumSta   MinNumSta=3   AddAtElmInt=Yes   AddAtPtLoad=Yes
   Frame=25   StationType=MinNumSta   MinNumSta=3   AddAtElmInt=Yes   AddAtPtLoad=Yes
   Frame=26   StationType=MinNumSta   MinNumSta=3   AddAtElmInt=Yes   AddAtPtLoad=Yes
   Frame=27   StationType=MinNumSta   MinNumSta=3   AddAtElmInt=Yes   AddAtPtLoad=Yes
   Frame=28   StationType=MinNumSta   MinNumSta=3   AddAtElmInt=Yes   AddAtPtLoad=Yes
   Frame=29   StationType=MinNumSta   MinNumSta=3   AddAtElmInt=Yes   AddAtPtLoad=Yes
   Frame=30   StationType=MinNumSta   MinNumSta=3   AddAtElmInt=Yes   AddAtPtLoad=Yes
   Frame=31   StationType=MinNumSta   MinNumSta=3   AddAtElmInt=Yes   AddAtPtLoad=Yes
   Frame=32   StationType=MinNumSta   MinNumSta=3   AddAtElmInt=Yes   AddAtPtLoad=Yes
   Frame=33   StationType=MaxStaSpcg   MaxStaSpcg=2   AddAtElmInt=Yes   AddAtPtLoad=Yes
   Frame=34   StationType=MaxStaSpcg   MaxStaSpcg=2   AddAtElmInt=Yes   AddAtPtLoad=Yes
   Frame=35   StationType=MaxStaSpcg   MaxStaSpcg=2   AddAtElmInt=Yes   AddAtPtLoad=Yes
   Frame=36   StationType=MaxStaSpcg   MaxStaSpcg=2   AddAtElmInt=Yes   AddAtPtLoad=Yes
   Frame=37   StationType=MaxStaSpcg   MaxStaSpcg=2   AddAtElmInt=Yes   AddAtPtLoad=Yes
   Frame=38   StationType=MaxStaSpcg   MaxStaSpcg=2   AddAtElmInt=Yes   AddAtPtLoad=Yes
   Frame=39   StationType=MaxStaSpcg   MaxStaSpcg=2   AddAtElmInt=Yes   AddAtPtLoad=Yes
   Frame=40   StationType=MaxStaSpcg   MaxStaSpcg=2   AddAtElmInt=Yes   AddAtPtLoad=Yes
 
TABLE:  "FRAME SECTION ASSIGNMENTS"
   Frame=1   AutoSelect=N.A.   AnalSect=HSS8X8X3/8   MatProp=Default
   Frame=2   AutoSelect=N.A.   AnalSect=HSS8X8X3/8   MatProp=Default
   Frame=3   AutoSelect=N.A.   AnalSect=HSS8X8X3/8   MatProp=Default
   Frame=4   AutoSelect=N.A.   AnalSect=HSS8X8X3/8   MatProp=Default
   Frame=5   AutoSelect=N.A.   AnalSect=HSS8X8X3/8   MatProp=Default
   Frame=6   AutoSelect=N.A.   AnalSect=HSS8X8X3/8   MatProp=Default
   Frame=7   AutoSelect=N.A.   AnalSect=HSS8X8X3/8   MatProp=Default
   Frame=8   AutoSelect=N.A.   AnalSect=HSS8X8X3/8   MatProp=Default
   Frame=9   AutoSelect=N.A.   AnalSect=HSS8X8X3/8   MatProp=Default
   Frame=10   AutoSelect=N.A.   AnalSect=HSS8X8X3/8   MatProp=Default
   Frame=11   AutoSelect=N.A.   AnalSect=HSS8X8X3/8   MatProp=Default
   Frame=12   AutoSelect=N.A.   AnalSect=HSS8X8X3/8   MatProp=Default
   Frame=13   AutoSelect=N.A.   AnalSect=HSS8X8X3/8   MatProp=Default
   Frame=14   AutoSelect=N.A.   AnalSect=HSS8X8X3/8   MatProp=Default
   Frame=15   AutoSelect=N.A.   AnalSect=HSS8X8X3/8   MatProp=Default
   Frame=16   AutoSelect=N.A.   AnalSect=HSS8X8X3/8   MatProp=Default
   Frame=17   AutoSelect=N.A.   AnalSect=HSS8X8X3/8   MatProp=Default
   Frame=18   AutoSelect=N.A.   AnalSect=HSS8X8X3/8   MatProp=Default
   Frame=19   AutoSelect=N.A.   AnalSect=HSS8X8X3/8   MatProp=Default
   Frame=20   AutoSelect=N.A.   AnalSect=HSS8X8X3/8   MatProp=Default
# ... 20 like lines cut
 
TABLE:  "FRAME SECTION PROPERTIES 01 - GENERAL"
   SectionName=HSS8X8X3/8   Material=A992Fy50   Shape=Box/Tube   t3=0.666666666666667   t2=0.666666666666667   tf=0.0290833339095116   tw=0.0290833339095116   Area=0.0722222195731269   TorsConst=0.00771604938271605   I33=0.00482253086419753 _
        I22=0.00482253086419753   I23=0   AS2=0.0387777785460154   AS3=0.0387777785460154   S33=0.0144675925925926   S22=0.0144675925925926   Z33=0.0170138886681309   Z22=0.0170138886681309   R33=0.258405701799983   R22=0.258405701799983 _
        Color=Green   FromFile=Yes   AMod=1   A2Mod=1   A3Mod=1   JMod=1   I2Mod=1   I3Mod=1   MMod=1   WMod=1   SectInFile=HSS8X8X3/8   FileName=e:\sap2000\sections8.pro   Notes="Imported 01-01-2018 00:09:56 from SECTIONS8.PRO"
 
TABLE:  "FRAME SECTION PROPERTIES 13 - TIME DEPENDENT"
   SectionName=HSS8X8X3/8   TypeSize=Auto   AutoSFSize=0
 
TABLE:  "FUNCTION - PLOT FUNCTIONS"
   PlotFunc="Input Energy"   Type=Energy   Component=Input   Mode=All
 
TABLE:  "FUNCTION - POWER SPECTRAL DENSITY - USER"
   Name=UNIFPSD   Frequency=0   Value=1
   Name=UNIFPSD   Frequency=1   Value=1
 
TABLE:  "FUNCTION - RESPONSE SPECTRUM - USER"
   Name=UNIFRS   Period=0   Accel=1   FuncDamp=0.05
   Name=UNIFRS   Period=1   Accel=1
 
TABLE:  "FUNCTION - STEADY STATE - USER"
   Name=UNIFSS   Frequency=0   Value=1
   Name=UNIFSS   Frequency=1   Value=1
 
TABLE:  "FUNCTION - TIME HISTORY - USER"
   Name=RAMPTH   Time=0   Value=0
   Name=RAMPTH   Time=1   Value=1
   Name=RAMPTH   Time=4   Value=1
   Name=UNIFTH   Time=0   Value=1
   Name=UNIFTH   Time=1   Value=1
 
TABLE:  "GRID LINES"
   CoordSys=GLOBAL   AxisDir=X   GridID=A   XRYZCoord=0   LineType=Primary   LineColor=Gray8Dark   Visible=Yes   BubbleLoc=End   AllVisible=Yes   BubbleSize=2.75
   CoordSys=GLOBAL   AxisDir=X   GridID=B   XRYZCoord=15   LineType=Primary   LineColor=Gray8Dark   Visible=Yes   BubbleLoc=End
   CoordSys=GLOBAL   AxisDir=X   GridID=C   XRYZCoord=30   LineType=Primary   LineColor=Gray8Dark   Visible=Yes   BubbleLoc=End
   CoordSys=GLOBAL   AxisDir=X   GridID=D   XRYZCoord=45   LineType=Primary   LineColor=Gray8Dark   Visible=Yes   BubbleLoc=End
   CoordSys=GLOBAL   AxisDir=Y   GridID=1   XRYZCoord=0   LineType=Primary   LineColor=Gray8Dark   Visible=Yes   BubbleLoc=Start
   CoordSys=GLOBAL   AxisDir=Y   GridID=2   XRYZCoord=15   LineType=Primary   LineColor=Gray8Dark   Visible=Yes   BubbleLoc=Start
   CoordSys=GLOBAL   AxisDir=Z   GridID=Z1   XRYZCoord=0   LineType=Primary   LineColor=Gray8Dark   Visible=Yes   BubbleLoc=End
   CoordSys=GLOBAL   AxisDir=Z   GridID=Z2   XRYZCoord=3   LineType=Primary   LineColor=Gray8Dark   Visible=Yes   BubbleLoc=End
   CoordSys=GLOBAL   AxisDir=Z   GridID=Z3   XRYZCoord=6   LineType=Primary   LineColor=Gray8Dark   Visible=Yes   BubbleLoc=End
   CoordSys=GLOBAL   AxisDir=Z   GridID=Z4   XRYZCoord=9   LineType=Primary   LineColor=Gray8Dark   Visible=Yes   BubbleLoc=End
   CoordSys=GLOBAL   AxisDir=Z   GridID=Z5   XRYZCoord=12   LineType=Primary   LineColor=Gray8Dark   Visible=Yes   BubbleLoc=End
   CoordSys=GLOBAL   AxisDir=Z   GridID=Z6   XRYZCoord=15   LineType=Primary   LineColor=Gray8Dark   Visible=Yes   BubbleLoc=End
   CoordSys=GLOBAL   AxisDir=Z   GridID=Z7   XRYZCoord=18   LineType=Primary   LineColor=Gray8Dark   Visible=Yes   BubbleLoc=End
   CoordSys=GLOBAL   AxisDir=Z   GridID=Z8   XRYZCoord=21   LineType=Primary   LineColor=Gray8Dark   Visible=Yes   BubbleLoc=End
 
TABLE:  "GROUPS 1 - DEFINITIONS"
   GroupName=ALL   Selection=Yes   SectionCut=Yes   Steel=Yes   Concrete=Yes   Aluminum=Yes   ColdFormed=Yes   Stage=Yes   Bridge=Yes   AutoSeismic=No   AutoWind=No   SelDesSteel=No   SelDesAlum=No   SelDesCold=No   MassWeight=Yes   Color=Red
 
TABLE:  "JOINT COORDINATES"
   Joint=1   CoordSys=GLOBAL   CoordType=Cartesian   XorR=0   Y=0   Z=0   SpecialJt=No   GUID=7f34e7af-1bc0-4475-8212-169a7f0fbb5a
   Joint=2   CoordSys=GLOBAL   CoordType=Cartesian   XorR=15   Y=0   Z=0   SpecialJt=No   GUID=b1bd76e3-3757-4ea3-8f02-c7de435deae5
   Joint=3   CoordSys=GLOBAL   CoordType=Cartesian   XorR=30   Y=0   Z=0   SpecialJt=No   GUID=cfc23ce2-9d41-49a7-b4da-53bcfa5d0b88
   Joint=4   CoordSys=GLOBAL   CoordType=Cartesian   XorR=45   Y=0   Z=0   SpecialJt=No   GUID=f66a259e-61bd-4261-b74f-a8178777593e
   Joint=5   CoordSys=GLOBAL   CoordType=Cartesian   XorR=45   Y=0   Z=15   SpecialJt=No   GUID=bdb10ff0-b942-4b5a-bb5d-7f3c1204932f
   Joint=6   CoordSys=GLOBAL   CoordType=Cartesian   XorR=30   Y=0   Z=21   SpecialJt=No   GUID=35c0797e-e679-42f1-a62f-369c5d4ff1cb
   Joint=7   CoordSys=GLOBAL   CoordType=Cartesian   XorR=15   Y=0   Z=21   SpecialJt=No   GUID=9151b30a-4e7c-454e-93d9-8d4408c198d4
   Joint=8   CoordSys=GLOBAL   CoordType=Cartesian   XorR=0   Y=0   Z=15   SpecialJt=No   GUID=39fed79b-ae51-4d2f-8f6f-6b2f51b24ae0
   Joint=9   CoordSys=GLOBAL   CoordType=Cartesian   XorR=0   Y=15   Z=0   SpecialJt=No   GUID=ac156321-d058-45d1-baaa-4098b7c60f6d
   Joint=10   CoordSys=GLOBAL   CoordType=Cartesian   XorR=15   Y=15   Z=0   SpecialJt=No   GUID=1ace197f-bdd5-4f77-903b-3e85c254f90f
   Joint=11   CoordSys=GLOBAL   CoordType=Cartesian   XorR=30   Y=15   Z=0   SpecialJt=No   GUID=07a89edb-67ea-4369-bf14-c21fce7b5396
   Joint=12   CoordSys=GLOBAL   CoordType=Cartesian   XorR=45   Y=15   Z=0   SpecialJt=No   GUID=e84f5459-332c-409d-8f98-5138690ed391
   Joint=13   CoordSys=GLOBAL   CoordType=Cartesian   XorR=45   Y=15   Z=15   SpecialJt=No   GUID=f8cf9b4b-93bd-4d71-9be0-e6aede55615d
   Joint=14   CoordSys=GLOBAL   CoordType=Cartesian   XorR=30   Y=15   Z=21   SpecialJt=No   GUID=da3ebca8-3995-4e58-945f-434919bfbd52
   Joint=15   CoordSys=GLOBAL   CoordType=Cartesian   XorR=15   Y=15   Z=21   SpecialJt=No   GUID=a31896dc-f4c0-463a-88be-1d05514a243f
   Joint=16   CoordSys=GLOBAL   CoordType=Cartesian   XorR=0   Y=15   Z=15   SpecialJt=No   GUID=31426625-8063-4d68-929e-9868cf1a7212
 
TABLE:  "JOINT PATTERN DEFINITIONS"
   Pattern=Default
 
TABLE:  "JOINT RESTRAINT ASSIGNMENTS"
   Joint=1   U1=Yes   U2=Yes   U3=Yes   R1=Yes   R2=Yes   R3=Yes
   Joint=4   U1=Yes   U2=Yes   U3=Yes   R1=Yes   R2=Yes   R3=Yes
   Joint=9   U1=Yes   U2=Yes   U3=Yes   R1=Yes   R2=Yes   R3=Yes
   Joint=12   U1=Yes   U2=Yes   U3=Yes   R1=Yes   R2=Yes   R3=Yes
 
TABLE:  "LOAD CASE DEFINITIONS"
   Case=DEAD   Type=LinStatic   InitialCond=Zero   DesTypeOpt="Prog Det"   DesignType=Dead   DesActOpt="Prog Det"   DesignAct=Non-Composite   AutoType=None   RunCase=Yes   GUID=489a7c7f-22db-4f6e-8e9e-bec7daa2690b
   Case=MODAL   Type=LinModal   InitialCond=Zero   DesTypeOpt="Prog Det"   DesignType=Other   DesActOpt="Prog Det"   DesignAct=Other   AutoType=None   RunCase=No   GUID=21e06a4d-f90e-4d69-8a79-46b1a90af957
 
TABLE:  "LOAD PATTERN DEFINITIONS"
   LoadPat=DEAD   DesignType=Dead   SelfWtMult=1   GUID=8df52850-9fe9-4730-8871-f89ce8df3b7d
 
TABLE:  "MASS SOURCE"
   MassSource=MSSSRC1   Elements=Yes   Masses=Yes   Loads=No   IsDefault=Yes
 
TABLE:  "MATERIAL PROPERTIES 01 - GENERAL"
   Material=4000Psi   Type=Concrete   SymType=Isotropic   TempDepend=No   Color=Blue   Notes="Customary f'c 4000 psi 01-01-2018 00:07:17"
   Material=A416Gr270   Type=Tendon   Grade="Grade 270"   SymType=Uniaxial   TempDepend=No   Color=Green   Notes="ASTM A416 Grade 270 01-11-2018 00:18:26"
   Material=A992Fy50   Type=Steel   SymType=Isotropic   TempDepend=No   Color=Gray8Dark   Notes="ASTM A992 Grade 50 01-01-2018 00:07:17"
 
TABLE:  "MATERIAL PROPERTIES 02 - BASIC MECHANICAL PROPERTIES"
   Material=4000Psi   UnitWeight=0.15000000000768   UnitMass=0.0046621423155456   E1=518400   G12=216000   U12=0.2   A1=5.5E-06
   Material=A416Gr270   UnitWeight=0.49   UnitMass=0.0152296649007508   E1=4104000   A1=6.5E-06
   Material=A992Fy50   UnitWeight=0.49   UnitMass=0.0152296649007508   E1=4176000   G12=1606153.84615385   U12=0.3   A1=6.5E-06
 
TABLE:  "MATERIAL PROPERTIES 03A - STEEL DATA"
   Material=A992Fy50   Fy=5184   Fu=9360   EffFy=7920   EffFu=10296   SSCurveOpt=Simple   SSHysType=Kinematic   SHard=0.015   SMax=0.11   SRup=0.17   FinalSlope=-0.1
 
TABLE:  "MATERIAL PROPERTIES 03B - CONCRETE DATA"
   Material=4000Psi   Fc=576   eFc=576   LtWtConc=No   SSCurveOpt=Mander   SSHysType=Takeda   SFc=0.00221914   SCap=0.005   FinalSlope=-0.1   FAngle=0   DAngle=0
 
TABLE:  "MATERIAL PROPERTIES 03F - TENDON DATA"
   Material=A416Gr270   Fy=35294.4   Fu=38880   SSCurveOpt="270 ksi"   SSHysType=Kinematic   FinalSlope=-0.1
 
TABLE:  "MATERIAL PROPERTIES 06 - DAMPING PARAMETERS"
   Material=4000Psi   ModalRatio=0   VisMass=0   VisStiff=0   HysMass=0   HysStiff=0
   Material=A416Gr270   ModalRatio=0   VisMass=0   VisStiff=0   HysMass=0   HysStiff=0
   Material=A992Fy50   ModalRatio=0   VisMass=0   VisStiff=0   HysMass=0   HysStiff=0
 
TABLE:  "OPTIONS - COLORS - DISPLAY"
   DeviceType=Screen   Points=Blue   LinesFrame=Blue   LinesFrmDL=Blue   LinesCable=Green   LinesTendon=Green   SpringLinks=Green   Restraints=Green   Releases=Green   Axes=Cyan   Text=Black   ShadowLines=Gray8Dark   GuideLines=Gray8Dark _
        Highlight=Red   Selection=10504778   AreaFillBot=Red   AreaFillTop=16744703   AreaFillSd=Red   AreaEdge=DarkRed   SolidF1=Red   SolidF2=Blue   SolidF3=Green   SolidF4=Yellow   SolidF5=White   SolidF6=Cyan   SolidEdge=DarkRed _
        Floor=Gray4   Background=White   BGLowLeft=White   BGLowRight=White   BGUpRight=White   Darkness=0.5
   DeviceType=Printer   Points=Gray8Dark   LinesFrame=Black   LinesFrmDL=Gray4   LinesCable=Black   LinesTendon=Black   SpringLinks=Gray8Dark   Restraints=Gray8Dark   Releases=Gray4   Axes=Black   Text=Black   ShadowLines=Gray4 _
        GuideLines=Gray4   Highlight=Black   Selection=Black   AreaFillBot=Gray4   AreaFillTop=Gray8Dark   AreaFillSd=Gray4   AreaEdge=Black   SolidF1=Gray1Light   SolidF2=Gray2   SolidF3=Gray3   SolidF4=Gray4   SolidF5=Gray5 _
        SolidF6=Gray6   SolidEdge=Black   Floor=Gray4   Background=White   BGLowLeft=White   BGLowRight=White   BGUpRight=White   Darkness=0.5
   DeviceType="Color Printer"   Points=Blue   LinesFrame=Blue   LinesFrmDL=Blue   LinesCable=Green   LinesTendon=Green   SpringLinks=Green   Restraints=Green   Releases=Green   Axes=Cyan   Text=Black   ShadowLines=Gray8Dark _
        GuideLines=Gray8Dark   Highlight=Red   Selection=10504778   AreaFillBot=Red   AreaFillTop=16744703   AreaFillSd=Red   AreaEdge=DarkRed   SolidF1=Red   SolidF2=Blue   SolidF3=Green   SolidF4=Yellow   SolidF5=White   SolidF6=Cyan _
        SolidEdge=DarkRed   Floor=Gray4   Background=White   BGLowLeft=White   BGLowRight=White   BGUpRight=White   Darkness=0.5
 
TABLE:  "OPTIONS - COLORS - OUTPUT"
   DeviceType=Screen   Contour1=13107400   Contour2=6553828   Contour3=Red   Contour4=16639   Contour5=Orange   Contour6=43775   Contour7=54527   Contour8=Yellow   Contour9=65408   Contour10=Green   Contour11=8453888   Contour12=Cyan _
        Contour13=16755200   Contour14=16733440   Contour15=Blue   Transpare=0.5   Ratio1=Cyan   Ratio2=Green   Ratio3=Yellow   Ratio4=Orange   Ratio5=Red   RatioNotD=Gray4   RatioNotC=Red   RatioVal1=0.5   RatioVal2=0.7   RatioVal3=0.9 _
        RatioVal4=1   DFillPos=Blue   DFillNeg=Red   DFillRPos=Green   DFillRNeg=Green
   DeviceType=Printer   Contour1=Black   Contour2=3158064   Contour3=4210752   Contour4=5263440   Contour5=6316128   Contour6=7368816   Contour7=Gray8Dark   Contour8=Gray7   Contour9=Gray6   Contour10=Gray5   Contour11=Gray4 _
        Contour12=Gray3   Contour13=Gray2   Contour14=Gray1Light   Contour15=White   Transpare=0   Ratio1=Gray2   Ratio2=Gray4   Ratio3=Gray8Dark   Ratio4=4210752   Ratio5=Black   RatioNotD=Gray4   RatioNotC=Black   RatioVal1=0.5 _
        RatioVal2=0.7   RatioVal3=0.9   RatioVal4=1   DFillPos=Gray8Dark   DFillNeg=Gray8Dark   DFillRPos=4210752   DFillRNeg=4210752
   DeviceType="Color Printer"   Contour1=13107400   Contour2=6553828   Contour3=Red   Contour4=16639   Contour5=Orange   Contour6=43775   Contour7=54527   Contour8=Yellow   Contour9=65408   Contour10=Green   Contour11=8453888 _
        Contour12=Cyan   Contour13=16755200   Contour14=16733440   Contour15=Blue   Transpare=0   Ratio1=Cyan   Ratio2=Green   Ratio3=Yellow   Ratio4=Orange   Ratio5=Red   RatioNotD=Gray4   RatioNotC=Red   RatioVal1=0.5   RatioVal2=0.7 _
        RatioVal3=0.9   RatioVal4=1   DFillPos=Blue   DFillNeg=Red   DFillRPos=Green   DFillRNeg=Green
 
TABLE:  "PREFERENCES - ALUMINUM DESIGN - AA-ASD 2000"
   THDesign=Envelopes   FrameType="Moment Frame"   SRatioLimit=1   MaxIter=1   LatFact=1.33333333333333   UseLatFact=No   Bridge=No
 
TABLE:  "PREFERENCES - COLD FORMED DESIGN - AISI-ASD96"
   THDesign=Envelopes   FrameType="Braced Frame"   SRatioLimit=1   MaxIter=1   OmegaBS=1.67   OmegaBUS=1.67   OmegaBLTB=1.67   OmegaVS=1.67   OmegaVNS=1.5   OmegaT=1.67   OmegaC=1.8
 
TABLE:  "PREFERENCES - CONCRETE DESIGN - ACI 318-14"
   THDesign=Envelopes   NumCurves=24   NumPoints=11   MinEccen=Yes   PatLLF=0.75   UFLimit=0.95   SeisCat=D   Rho=1   Sds=0.5   PhiT=0.9   PhiCTied=0.65   PhiCSpiral=0.75   PhiV=0.75   PhiVSeismic=0.6   PhiVJoint=0.85
 
TABLE:  "PREFERENCES - DIMENSIONAL"
   MergeTol=0.00833333333333333   FineGrid=1   Nudge=1   SelectTol=3   SnapTol=12   SLineThick=2   PLineThick=4   MaxFont=8   MinFont=3   AutoZoom=10   ShrinkFact=70   TextFileLen=240
 
TABLE:  "PREFERENCES - STEEL DESIGN - AISC 360-10"
   THDesign=Envelopes   FrameType=SMF   PatLLF=0.75   SRatioLimit=0.95   MaxIter=1   SDC=D   SeisCode=Yes   SeisLoad=Yes   ImpFactor=1   SystemRho=1   SystemSds=0.5   SystemR=8   SystemCd=5.5   Omega0=3   Provision=LRFD _
        AMethod="Direct Analysis"   SOMethod="General 2nd Order"   SRMethod="Tau-b Fixed"   NLCoeff=0.002   PhiB=0.9   PhiC=0.9   PhiTY=0.9   PhiTF=0.75   PhiV=0.9   PhiVRolledI=1   PhiVT=0.9   PlugWeld=Yes   HSSWelding=ERW   HSSReduceT=No _
        CheckDefl=No   DLRat=120   SDLAndLLRat=120   LLRat=360   TotalRat=240   NetRat=240
 
TABLE:  "PROGRAM CONTROL"
   ProgramName=SAP2000   Version=20.2.0   CurrUnits="Kip, ft, F"   SteelCode="AISC 360-10"   ConcCode="ACI 318-14"   AlumCode="AA-ASD 2000"   ColdCode=AISI-ASD96   RegenHinge=Yes
 
TABLE:  "PROJECT INFORMATION"
   Item="Company Name"
   Item="Client Name"
   Item="Project Name"
   Item="Project Number"
   Item="Model Name"
   Item="Model Description"
   Item="Revision Number"
   Item="Frame Type"
   Item=Engineer
   Item=Checker
   Item=Supervisor
   Item="Issue Code"
   Item="Design Code"
 
TABLE:  "REBAR SIZES"
   RebarID=#2   Area=0.000347222222222222   Diameter=0.0208333333333333
   RebarID=#3   Area=0.000763888884749677   Diameter=0.03125
   RebarID=#4   Area=0.00138888890958495   Diameter=0.0416666666666667
   RebarID=#5   Area=0.00215277779433462   Diameter=0.0520833333333333
   RebarID=#6   Area=0.00305555553899871   Diameter=0.0625
   RebarID=#7   Area=0.00416666683223512   Diameter=0.0729166666666667
   RebarID=#8   Area=0.00548611126012272   Diameter=0.0833333333333333
   RebarID=#9   Area=0.00694444444444444   Diameter=0.0940000017484029
   RebarID=#10   Area=0.00881944431198968   Diameter=0.105833331743876
   RebarID=#11   Area=0.010833332935969   Diameter=0.11749999721845
   RebarID=#14   Area=0.015625   Diameter=0.141083329916
   RebarID=#18   Area=0.0277777777777778   Diameter=0.188083330790202
   RebarID=10M   Area=0.00107639107025332   Diameter=0.0370734930038452
   RebarID=15M   Area=0.00215278214050664   Diameter=0.0524934381246567
   RebarID=20M   Area=0.00322917331424024   Diameter=0.063976377248764
   RebarID=25M   Area=0.00538195545474688   Diameter=0.0826771706342697
   RebarID=30M   Area=0.00753473738829295   Diameter=0.0980971157550812
   RebarID=35M   Area=0.0107639109094938   Diameter=0.117125988006592
   RebarID=45M   Area=0.0161458667781618   Diameter=0.143372704585393
   RebarID=55M   Area=0.0269097768598133   Diameter=0.185039381186167
   RebarID=6d   Area=0.000304618669259879   Diameter=0.019685039917628
   RebarID=8d   Area=0.000541424689193567   Diameter=0.0262467190623283
   RebarID=10d   Area=0.000844966982387834   Diameter=0.0328083982070287
   RebarID=12d   Area=0.00121632197664844   Diameter=0.0393700798352559
   RebarID=14d   Area=0.00165764232062631   Diameter=0.0459317614634832
   RebarID=16d   Area=0.00216354615986347   Diameter=0.0524934381246567
   RebarID=20d   Area=0.00337986792955134   Diameter=0.0656167964140574
   RebarID=25d   Area=0.00528508010837767   Diameter=0.0820209980010986
   RebarID=26d   Area=0.00571563674343957   Diameter=0.0853018363316854
   RebarID=28d   Area=0.00663056928250525   Diameter=0.0918635229269663
   RebarID=N12   Area=0.00121632197664844   Diameter=0.0393700798352559
   RebarID=N16   Area=0.00216354615986347   Diameter=0.0524934381246567
   RebarID=N20   Area=0.00337986792955134   Diameter=0.0656167964140574
   RebarID=N24   Area=0.00486528790659375   Diameter=0.0787401596705119
   RebarID=N28   Area=0.00663056928250525   Diameter=0.0918635229269663
   RebarID=N32   Area=0.00865418463945389   Diameter=0.104986876249313
   RebarID=N36   Area=0.0109791888131036   Diameter=0.118110239505768
 
TABLE:  "SOLID PROPERTY DEFINITIONS"
   SolidProp=Solid1   Material=4000Psi   MatAngleA=0   MatAngleB=0   MatAngleC=0   InComp=Yes   Color=Cyan
 
END TABLE DATA
