File C:\Users\lenovo\OneDrive - IIT Kanpur\Desktop\descon\SAP PROJECT.$2k was saved on m/d/yy at h:mm:ss
 
TABLE:  "ACTIVE DEGREES OF FREEDOM"
   UX=Yes   UY=Yes   UZ=Yes   RX=Yes   RY=Yes   RZ=Yes
 
TABLE:  "ANALYSIS OPTIONS"
   Solver=Advanced   SolverProc=Auto   Force32Bit=No   StiffCase=None   GeomMod=None   HingeOpt="In Elements"
 
TABLE:  "AREA AUTO MESH ASSIGNMENTS"
   Area=1   MeshType="Points On Edges"   MeshGroup=ALL   PtsFromLine=Yes   PtsFromPt=Yes   LocalEdge=No   LocalFace=No   SuppEdge=No   SuppFace=No   SubMesh=No
   Area=2   MeshType="Points On Edges"   MeshGroup=ALL   PtsFromLine=Yes   PtsFromPt=Yes   LocalEdge=No   LocalFace=No   SuppEdge=No   SuppFace=No   SubMesh=No
   Area=3   MeshType="Points On Edges"   MeshGroup=ALL   PtsFromLine=Yes   PtsFromPt=Yes   LocalEdge=No   LocalFace=No   SuppEdge=No   SuppFace=No   SubMesh=No
   Area=4   MeshType="Points On Edges"   MeshGroup=ALL   PtsFromLine=Yes   PtsFromPt=Yes   LocalEdge=No   LocalFace=No   SuppEdge=No   SuppFace=No   SubMesh=No
   Area=5   MeshType="Points On Edges"   MeshGroup=ALL   PtsFromLine=Yes   PtsFromPt=Yes   LocalEdge=No   LocalFace=No   SuppEdge=No   SuppFace=No   SubMesh=No
   Area=6   MeshType="Points On Edges"   MeshGroup=ALL   PtsFromLine=Yes   PtsFromPt=Yes   LocalEdge=No   LocalFace=No   SuppEdge=No   SuppFace=No   SubMesh=No
 
TABLE:  "AREA SECTION ASSIGNMENTS"
   Area=1   Section=BOTTOM   MatProp=Default
   Area=2   Section=BOTTOM   MatProp=Default
   Area=3   Section=BOTTOM   MatProp=Default
   Area=4   Section=BOTTOM   MatProp=Default
   Area=5   Section=BOTTOM   MatProp=Default
   Area=6   Section=BOTTOM   MatProp=Default
 
TABLE:  "AREA SECTION PROPERTIES"
   Section=BOTTOM   Material=4000Psi   MatAngle=0   AreaType=Shell   Type=Shell-Thin   DrillDOF=Yes   Thickness=0.3048   BendThick=0.3048   Color=Green   F11Mod=1   F22Mod=1   F12Mod=1   M11Mod=1   M22Mod=1   M12Mod=1   V13Mod=1   V23Mod=1 _
        MMod=1   WMod=1   Notes="Added 01-01-2018 00:09:24"
 
TABLE:  "AREA SECTION PROPERTY DESIGN PARAMETERS"
   Section=BOTTOM   RebarMat=None   RebarOpt=Default
 
TABLE:  "AREA SECTION PROPERTY - TIME DEPENDENT"
   Section=BOTTOM   TypeSize=Auto   AutoSFSize=1
 
TABLE:  "AUTO WAVE 3 - WAVE CHARACTERISTICS - GENERAL"
   WaveChar=Default   WaveType="From Theory"   KinFactor=1   SWaterDepth=45   WaveHeight=18   WavePeriod=12   WaveTheory=Linear
 
TABLE:  "CASE - MODAL 1 - GENERAL"
   Case=MODAL   ModeType=Eigen   MaxNumModes=12   MinNumModes=1   EigenShift=0   EigenCutoff=0   EigenTol=1E-09   AutoShift=Yes
 
TABLE:  "CASE - STATIC 1 - LOAD ASSIGNMENTS"
   Case=DEAD   LoadType="Load pattern"   LoadName=DEAD   LoadSF=1
 
TABLE:  "CONNECTIVITY - AREA"
   Area=1   Joint1=21   Joint2=23   Joint3=8   Joint4=4   GUID=9cbd9c2b-5044-42e6-8d13-30c2608068a8
   Area=2   Joint1=23   Joint2=24   Joint3=9   Joint4=8   GUID=c1db64eb-b6a8-4d0e-bb4a-b886d708ac17
   Area=3   Joint1=26   Joint2=22   Joint3=5   Joint4=13   GUID=9719f429-a5ba-46d5-8073-7758eb42cfbe
   Area=4   Joint1=24   Joint2=27   Joint3=15   Joint4=9   GUID=4575a03c-0419-4b2e-8c74-dde8108a58c4
   Area=5   Joint1=27   Joint2=25   Joint3=12   Joint4=15   GUID=1de00dca-0532-425f-845e-a0ed98179b68
   Area=6   Joint1=25   Joint2=26   Joint3=13   Joint4=12   GUID=bf6b05c0-aa9b-4ef7-be48-419ee9a5afcf
 
TABLE:  "CONNECTIVITY - FRAME"
   Frame=3   JointI=4   JointJ=5   IsCurved=No   GUID=710f7ba5-b0bd-463a-9eaf-87eceb50d1c6
   Frame=4   JointI=5   JointJ=6   IsCurved=No   GUID=4c0f87bb-07dd-4620-907c-4c4c1cd0d01a
   Frame=5   JointI=6   JointJ=7   IsCurved=No   GUID=4291d52d-c4af-436d-8c75-560aad7ddb66
   Frame=6   JointI=7   JointJ=4   IsCurved=No   GUID=ebd23b21-ef1f-46da-bc74-6fa4055ee7d7
   Frame=7   JointI=7   JointJ=8   IsCurved=No   GUID=4d15a9cf-88b0-468d-af58-78f8927a65d4
   Frame=8   JointI=7   JointJ=9   IsCurved=No   GUID=1d63a176-5f33-4221-acff-fcaae9ed4271
   Frame=9   JointI=9   JointJ=10   IsCurved=No   GUID=08bf356b-2283-4db9-b8b4-37602f53d657
   Frame=10   JointI=9   JointJ=11   IsCurved=No   GUID=c4f176da-b278-42ed-8b60-b06cd0782bf0
   Frame=11   JointI=11   JointJ=12   IsCurved=No   GUID=e8758778-a350-44bb-b14e-4e07c757309d
   Frame=12   JointI=12   JointJ=6   IsCurved=No   GUID=88f6af90-e14c-40a2-92dd-fe9aff293b09
   Frame=13   JointI=6   JointJ=13   IsCurved=No   GUID=d5f12a37-d76b-455f-9279-cc083dcd9c4f
   Frame=14   JointI=14   JointJ=12   IsCurved=No   GUID=a74dfeaa-77d5-4edf-8140-bde773060350
   Frame=15   JointI=11   JointJ=15   IsCurved=No   GUID=364a3b47-c8da-4696-8470-efb477dd537c
   Frame=16   JointI=7   JointJ=16   IsCurved=No   GUID=e95c82e5-7bbd-43e0-8ae9-ccf59c4e85cc
   Frame=17   JointI=6   JointJ=17   IsCurved=No   GUID=84dec323-f0a8-4a84-ad83-a8c5283b4073
   Frame=18   JointI=16   JointJ=10   IsCurved=No   GUID=373788ea-4680-4af5-9896-03a0ee6ad259
   Frame=19   JointI=10   JointJ=18   IsCurved=No   GUID=00f0e767-0fc2-46d5-a52f-22ba9d4e6b1c
   Frame=20   JointI=18   JointJ=14   IsCurved=No   GUID=3993f2e6-0b08-4efc-a44b-86fc883ce95f
   Frame=21   JointI=14   JointJ=17   IsCurved=No   GUID=70b8c30d-4a3d-416e-8b3b-9e91a70407fe
   Frame=22   JointI=7   JointJ=19   IsCurved=No   GUID=47433390-668f-43c9-87c5-70a15cba6428
   Frame=23   JointI=19   JointJ=11   IsCurved=No   GUID=17e8f9a6-3e13-4230-b702-41f29e6199aa
   Frame=24   JointI=11   JointJ=20   IsCurved=No   GUID=decbbb2a-6c79-4b36-b802-a031b7f8f750
   Frame=25   JointI=20   JointJ=6   IsCurved=No   GUID=e0401bce-1ca7-4f1b-b2f8-b37e7937d970
   Frame=26   JointI=19   JointJ=10   IsCurved=No   GUID=e8956c6e-4399-49a4-8c77-35a71168164a
   Frame=27   JointI=18   JointJ=11   IsCurved=No   GUID=d0307468-682f-463e-87bd-85f2f52edd45
   Frame=28   JointI=20   JointJ=14   IsCurved=No   GUID=9ef5a19e-fc39-469b-86b9-c35ccc61006c
   Frame=29   JointI=21   JointJ=22   IsCurved=No   GUID=06782eed-7206-4562-b3a7-ce7e0d0eb2da
   Frame=30   JointI=22   JointJ=17   IsCurved=No   GUID=2affadbc-f3bc-49a3-bac1-067fe76a54bf
   Frame=31   JointI=17   JointJ=16   IsCurved=No   GUID=e514cc7a-c5a5-4aaf-acf0-091373cd95b9
   Frame=32   JointI=16   JointJ=21   IsCurved=No   GUID=d8e07700-d467-4b9d-99f0-c33c9c45148b
   Frame=33   JointI=16   JointJ=23   IsCurved=No   GUID=d684017c-39bf-4bb5-be57-025fcb79a73a
   Frame=34   JointI=16   JointJ=24   IsCurved=No   GUID=24cda86d-9981-4770-a72d-db984cc959ca
   Frame=35   JointI=24   JointJ=19   IsCurved=No   GUID=9da5bea8-477f-4a53-a0c6-e24cd072974b
   Frame=36   JointI=24   JointJ=18   IsCurved=No   GUID=18081bd4-2671-4d8c-9d78-e87fc8414525
   Frame=37   JointI=18   JointJ=25   IsCurved=No   GUID=68bf3c94-3ec6-4c25-885b-d0b4ca4d6372
   Frame=38   JointI=25   JointJ=17   IsCurved=No   GUID=28f8fb39-a1d8-4662-a647-d5ed73f34bea
   Frame=39   JointI=17   JointJ=26   IsCurved=No   GUID=9df80ca2-3989-4dba-9f77-a279f7f22c34
   Frame=40   JointI=20   JointJ=25   IsCurved=No   GUID=f4e7a0a2-19d9-4ff3-9518-fc0c6173c424
   Frame=41   JointI=18   JointJ=27   IsCurved=No   GUID=93442679-c211-425b-bc39-0c2431f7481e
   Frame=42   JointI=8   JointJ=23   IsCurved=No   GUID=c17adbc5-11d9-4b2d-bd0f-d49d70131af3
   Frame=43   JointI=13   JointJ=26   IsCurved=No   GUID=4c4f3c6a-5165-4985-bd6e-5adf642d333d
   Frame=44   JointI=23   JointJ=9   IsCurved=No   GUID=bddf8b7a-e621-4c13-86b3-4ae9381af1d5
   Frame=45   JointI=9   JointJ=27   IsCurved=No   GUID=c1283b3b-9265-4534-994f-3153f3f0c826
   Frame=46   JointI=27   JointJ=12   IsCurved=No   GUID=6a0df805-4ce2-4811-92cd-4b9a68790673
   Frame=47   JointI=12   JointJ=26   IsCurved=No   GUID=d22bd874-451a-42ef-b48d-68a9a3e1c3bc
   Frame=48   JointI=8   JointJ=24   IsCurved=No   GUID=f41f40d1-8240-4146-93f8-8719fadcdb2a
   Frame=49   JointI=24   JointJ=15   IsCurved=No   GUID=42e57798-02dd-40e3-94ec-cb641fea004b
   Frame=50   JointI=15   JointJ=25   IsCurved=No   GUID=b2b45b5f-ebc2-4b81-9247-70f56f38acab
   Frame=51   JointI=25   JointJ=13   IsCurved=No   GUID=1d51b050-8eb7-4058-8c46-3ea9f98436dd
   Frame=52   JointI=24   JointJ=9   IsCurved=No   GUID=fcef95f4-3287-462c-b149-b049f0d6254a
   Frame=53   JointI=27   JointJ=15   IsCurved=No   GUID=e28ced65-ae50-40f7-be01-df9311bdb718
   Frame=54   JointI=25   JointJ=12   IsCurved=No   GUID=ec9d3adf-f893-4822-b2f1-3a489ebe7666
   Frame=55   JointI=21   JointJ=4   IsCurved=No   GUID=cdc573ce-c20d-49f9-b25b-f1a082b108c0
   Frame=56   JointI=22   JointJ=5   IsCurved=No   GUID=62de2c55-0232-4839-a075-2397a0c12378
 
TABLE:  "COORDINATE SYSTEMS"
   Name=GLOBAL   Type=Cartesian   X=0   Y=0   Z=0   AboutZ=0   AboutY=0   AboutX=0
 
TABLE:  "DATABASE DOCUMENTATION"
 
TABLE:  "DATABASE FORMAT TYPES"
   UnitsCurr=Yes   OverrideE=No
 
TABLE:  "FRAME AUTO MESH ASSIGNMENTS"
   Frame=3   AutoMesh=Yes   AtJoints=Yes   AtFrames=No   NumSegments=0   MaxLength=0   MaxDegrees=0
   Frame=4   AutoMesh=Yes   AtJoints=Yes   AtFrames=No   NumSegments=0   MaxLength=0   MaxDegrees=0
   Frame=5   AutoMesh=Yes   AtJoints=Yes   AtFrames=No   NumSegments=0   MaxLength=0   MaxDegrees=0
   Frame=6   AutoMesh=Yes   AtJoints=Yes   AtFrames=No   NumSegments=0   MaxLength=0   MaxDegrees=0
   Frame=7   AutoMesh=Yes   AtJoints=Yes   AtFrames=No   NumSegments=0   MaxLength=0   MaxDegrees=0
   Frame=8   AutoMesh=Yes   AtJoints=Yes   AtFrames=No   NumSegments=0   MaxLength=0   MaxDegrees=0
   Frame=9   AutoMesh=Yes   AtJoints=Yes   AtFrames=No   NumSegments=0   MaxLength=0   MaxDegrees=0
   Frame=10   AutoMesh=Yes   AtJoints=Yes   AtFrames=No   NumSegments=0   MaxLength=0   MaxDegrees=0
   Frame=11   AutoMesh=Yes   AtJoints=Yes   AtFrames=No   NumSegments=0   MaxLength=0   MaxDegrees=0
   Frame=12   AutoMesh=Yes   AtJoints=Yes   AtFrames=No   NumSegments=0   MaxLength=0   MaxDegrees=0
   Frame=13   AutoMesh=Yes   AtJoints=Yes   AtFrames=No   NumSegments=0   MaxLength=0   MaxDegrees=0
   Frame=14   AutoMesh=Yes   AtJoints=Yes   AtFrames=No   NumSegments=0   MaxLength=0   MaxDegrees=0
   Frame=15   AutoMesh=Yes   AtJoints=Yes   AtFrames=No   NumSegments=0   MaxLength=0   MaxDegrees=0
   Frame=16   AutoMesh=Yes   AtJoints=Yes   AtFrames=No   NumSegments=0   MaxLength=0   MaxDegrees=0
   Frame=17   AutoMesh=Yes   AtJoints=Yes   AtFrames=No   NumSegments=0   MaxLength=0   MaxDegrees=0
   Frame=18   AutoMesh=Yes   AtJoints=Yes   AtFrames=No   NumSegments=0   MaxLength=0   MaxDegrees=0
   Frame=19   AutoMesh=Yes   AtJoints=Yes   AtFrames=No   NumSegments=0   MaxLength=0   MaxDegrees=0
   Frame=20   AutoMesh=Yes   AtJoints=Yes   AtFrames=No   NumSegments=0   MaxLength=0   MaxDegrees=0
   Frame=21   AutoMesh=Yes   AtJoints=Yes   AtFrames=No   NumSegments=0   MaxLength=0   MaxDegrees=0
   Frame=22   AutoMesh=Yes   AtJoints=Yes   AtFrames=No   NumSegments=0   MaxLength=0   MaxDegrees=0
# ... 34 like lines cut
 
TABLE:  "FRAME DESIGN PROCEDURES"
   Frame=3   DesignProc="From Material"
   Frame=4   DesignProc="From Material"
   Frame=5   DesignProc="From Material"
   Frame=6   DesignProc="From Material"
   Frame=7   DesignProc="From Material"
   Frame=8   DesignProc="From Material"
   Frame=9   DesignProc="From Material"
   Frame=10   DesignProc="From Material"
   Frame=11   DesignProc="From Material"
   Frame=12   DesignProc="From Material"
   Frame=13   DesignProc="From Material"
   Frame=14   DesignProc="From Material"
   Frame=15   DesignProc="From Material"
   Frame=16   DesignProc="From Material"
   Frame=17   DesignProc="From Material"
   Frame=18   DesignProc="From Material"
   Frame=19   DesignProc="From Material"
   Frame=20   DesignProc="From Material"
   Frame=21   DesignProc="From Material"
   Frame=22   DesignProc="From Material"
# ... 34 like lines cut
 
TABLE:  "FRAME LOAD TRANSFER OPTIONS"
   Frame=3   Transfer=Yes
   Frame=4   Transfer=Yes
   Frame=5   Transfer=Yes
   Frame=6   Transfer=Yes
   Frame=7   Transfer=Yes
   Frame=8   Transfer=Yes
   Frame=9   Transfer=Yes
   Frame=10   Transfer=Yes
   Frame=11   Transfer=Yes
   Frame=12   Transfer=Yes
   Frame=13   Transfer=Yes
   Frame=14   Transfer=Yes
   Frame=15   Transfer=Yes
   Frame=16   Transfer=Yes
   Frame=17   Transfer=Yes
   Frame=18   Transfer=Yes
   Frame=19   Transfer=Yes
   Frame=20   Transfer=Yes
   Frame=21   Transfer=Yes
   Frame=22   Transfer=Yes
# ... 34 like lines cut
 
TABLE:  "FRAME OUTPUT STATION ASSIGNMENTS"
   Frame=3   StationType=MaxStaSpcg   MaxStaSpcg=0.5   AddAtElmInt=Yes   AddAtPtLoad=Yes
   Frame=4   StationType=MinNumSta   MinNumSta=3   AddAtElmInt=Yes   AddAtPtLoad=Yes
   Frame=5   StationType=MaxStaSpcg   MaxStaSpcg=0.5   AddAtElmInt=Yes   AddAtPtLoad=Yes
   Frame=6   StationType=MinNumSta   MinNumSta=3   AddAtElmInt=Yes   AddAtPtLoad=Yes
   Frame=7   StationType=MinNumSta   MinNumSta=3   AddAtElmInt=Yes   AddAtPtLoad=Yes
   Frame=8   StationType=MinNumSta   MinNumSta=3   AddAtElmInt=Yes   AddAtPtLoad=Yes
   Frame=9   StationType=MinNumSta   MinNumSta=3   AddAtElmInt=Yes   AddAtPtLoad=Yes
   Frame=10   StationType=MinNumSta   MinNumSta=3   AddAtElmInt=Yes   AddAtPtLoad=Yes
   Frame=11   StationType=MinNumSta   MinNumSta=3   AddAtElmInt=Yes   AddAtPtLoad=Yes
   Frame=12   StationType=MinNumSta   MinNumSta=3   AddAtElmInt=Yes   AddAtPtLoad=Yes
   Frame=13   StationType=MinNumSta   MinNumSta=3   AddAtElmInt=Yes   AddAtPtLoad=Yes
   Frame=14   StationType=MinNumSta   MinNumSta=3   AddAtElmInt=Yes   AddAtPtLoad=Yes
   Frame=15   StationType=MinNumSta   MinNumSta=3   AddAtElmInt=Yes   AddAtPtLoad=Yes
   Frame=16   StationType=MaxStaSpcg   MaxStaSpcg=0.5   AddAtElmInt=Yes   AddAtPtLoad=Yes
   Frame=17   StationType=MaxStaSpcg   MaxStaSpcg=0.5   AddAtElmInt=Yes   AddAtPtLoad=Yes
   Frame=18   StationType=MaxStaSpcg   MaxStaSpcg=0.5   AddAtElmInt=Yes   AddAtPtLoad=Yes
   Frame=19   StationType=MaxStaSpcg   MaxStaSpcg=0.5   AddAtElmInt=Yes   AddAtPtLoad=Yes
   Frame=20   StationType=MaxStaSpcg   MaxStaSpcg=0.5   AddAtElmInt=Yes   AddAtPtLoad=Yes
   Frame=21   StationType=MaxStaSpcg   MaxStaSpcg=0.5   AddAtElmInt=Yes   AddAtPtLoad=Yes
   Frame=22   StationType=MaxStaSpcg   MaxStaSpcg=0.5   AddAtElmInt=Yes   AddAtPtLoad=Yes
   Frame=23   StationType=MaxStaSpcg   MaxStaSpcg=0.5   AddAtElmInt=Yes   AddAtPtLoad=Yes
   Frame=24   StationType=MaxStaSpcg   MaxStaSpcg=0.5   AddAtElmInt=Yes   AddAtPtLoad=Yes
   Frame=25   StationType=MaxStaSpcg   MaxStaSpcg=0.5   AddAtElmInt=Yes   AddAtPtLoad=Yes
   Frame=26   StationType=MaxStaSpcg   MaxStaSpcg=0.5   AddAtElmInt=Yes   AddAtPtLoad=Yes
   Frame=27   StationType=MaxStaSpcg   MaxStaSpcg=0.5   AddAtElmInt=Yes   AddAtPtLoad=Yes
   Frame=28   StationType=MaxStaSpcg   MaxStaSpcg=0.5   AddAtElmInt=Yes   AddAtPtLoad=Yes
   Frame=29   StationType=MaxStaSpcg   MaxStaSpcg=0.5   AddAtElmInt=Yes   AddAtPtLoad=Yes
   Frame=30   StationType=MinNumSta   MinNumSta=3   AddAtElmInt=Yes   AddAtPtLoad=Yes
   Frame=31   StationType=MaxStaSpcg   MaxStaSpcg=0.5   AddAtElmInt=Yes   AddAtPtLoad=Yes
   Frame=32   StationType=MinNumSta   MinNumSta=3   AddAtElmInt=Yes   AddAtPtLoad=Yes
   Frame=33   StationType=MinNumSta   MinNumSta=3   AddAtElmInt=Yes   AddAtPtLoad=Yes
   Frame=34   StationType=MinNumSta   MinNumSta=3   AddAtElmInt=Yes   AddAtPtLoad=Yes
   Frame=35   StationType=MinNumSta   MinNumSta=3   AddAtElmInt=Yes   AddAtPtLoad=Yes
   Frame=36   StationType=MinNumSta   MinNumSta=3   AddAtElmInt=Yes   AddAtPtLoad=Yes
   Frame=37   StationType=MinNumSta   MinNumSta=3   AddAtElmInt=Yes   AddAtPtLoad=Yes
   Frame=38   StationType=MinNumSta   MinNumSta=3   AddAtElmInt=Yes   AddAtPtLoad=Yes
   Frame=39   StationType=MinNumSta   MinNumSta=3   AddAtElmInt=Yes   AddAtPtLoad=Yes
   Frame=40   StationType=MinNumSta   MinNumSta=3   AddAtElmInt=Yes   AddAtPtLoad=Yes
   Frame=41   StationType=MinNumSta   MinNumSta=3   AddAtElmInt=Yes   AddAtPtLoad=Yes
   Frame=42   StationType=MaxStaSpcg   MaxStaSpcg=0.5   AddAtElmInt=Yes   AddAtPtLoad=Yes
   Frame=43   StationType=MaxStaSpcg   MaxStaSpcg=0.5   AddAtElmInt=Yes   AddAtPtLoad=Yes
   Frame=44   StationType=MaxStaSpcg   MaxStaSpcg=0.5   AddAtElmInt=Yes   AddAtPtLoad=Yes
   Frame=45   StationType=MaxStaSpcg   MaxStaSpcg=0.5   AddAtElmInt=Yes   AddAtPtLoad=Yes
   Frame=46   StationType=MaxStaSpcg   MaxStaSpcg=0.5   AddAtElmInt=Yes   AddAtPtLoad=Yes
   Frame=47   StationType=MaxStaSpcg   MaxStaSpcg=0.5   AddAtElmInt=Yes   AddAtPtLoad=Yes
   Frame=48   StationType=MaxStaSpcg   MaxStaSpcg=0.5   AddAtElmInt=Yes   AddAtPtLoad=Yes
   Frame=49   StationType=MaxStaSpcg   MaxStaSpcg=0.5   AddAtElmInt=Yes   AddAtPtLoad=Yes
   Frame=50   StationType=MaxStaSpcg   MaxStaSpcg=0.5   AddAtElmInt=Yes   AddAtPtLoad=Yes
   Frame=51   StationType=MaxStaSpcg   MaxStaSpcg=0.5   AddAtElmInt=Yes   AddAtPtLoad=Yes
   Frame=52   StationType=MaxStaSpcg   MaxStaSpcg=0.5   AddAtElmInt=Yes   AddAtPtLoad=Yes
   Frame=53   StationType=MaxStaSpcg   MaxStaSpcg=0.5   AddAtElmInt=Yes   AddAtPtLoad=Yes
   Frame=54   StationType=MaxStaSpcg   MaxStaSpcg=0.5   AddAtElmInt=Yes   AddAtPtLoad=Yes
   Frame=55   StationType=MaxStaSpcg   MaxStaSpcg=0.5   AddAtElmInt=Yes   AddAtPtLoad=Yes
   Frame=56   StationType=MaxStaSpcg   MaxStaSpcg=0.5   AddAtElmInt=Yes   AddAtPtLoad=Yes
 
TABLE:  "FRAME SECTION ASSIGNMENTS"
   Frame=3   AutoSelect=N.A.   AnalSect=HSS8X8X3/8   MatProp=Default
   Frame=4   AutoSelect=N.A.   AnalSect=HSS8X8X3/8   MatProp=Default
   Frame=5   AutoSelect=N.A.   AnalSect=HSS8X8X3/8   MatProp=Default
   Frame=6   AutoSelect=N.A.   AnalSect=HSS8X8X3/8   MatProp=Default
   Frame=7   AutoSelect=N.A.   AnalSect=HSS8X8X3/8   MatProp=Default
   Frame=8   AutoSelect=N.A.   AnalSect=HSS8X8X3/8   MatProp=Default
   Frame=9   AutoSelect=N.A.   AnalSect=HSS8X8X3/8   MatProp=Default
   Frame=10   AutoSelect=N.A.   AnalSect=HSS8X8X3/8   MatProp=Default
   Frame=11   AutoSelect=N.A.   AnalSect=HSS8X8X3/8   MatProp=Default
   Frame=12   AutoSelect=N.A.   AnalSect=HSS8X8X3/8   MatProp=Default
   Frame=13   AutoSelect=N.A.   AnalSect=HSS8X8X3/8   MatProp=Default
   Frame=14   AutoSelect=N.A.   AnalSect=HSS8X8X3/8   MatProp=Default
   Frame=15   AutoSelect=N.A.   AnalSect=HSS8X8X3/8   MatProp=Default
   Frame=16   AutoSelect=N.A.   AnalSect=HSS8X8X3/8   MatProp=Default
   Frame=17   AutoSelect=N.A.   AnalSect=HSS8X8X3/8   MatProp=Default
   Frame=18   AutoSelect=N.A.   AnalSect=HSS8X8X3/8   MatProp=Default
   Frame=19   AutoSelect=N.A.   AnalSect=HSS8X8X3/8   MatProp=Default
   Frame=20   AutoSelect=N.A.   AnalSect=HSS8X8X3/8   MatProp=Default
   Frame=21   AutoSelect=N.A.   AnalSect=HSS8X8X3/8   MatProp=Default
   Frame=22   AutoSelect=N.A.   AnalSect=HSS8X8X3/8   MatProp=Default
# ... 34 like lines cut
 
TABLE:  "FRAME SECTION PROPERTIES 01 - GENERAL"
   SectionName=FSEC1   Material=A992Fy50   Shape="I/Wide Flange"   t3=0.3048   t2=0.127   tf=0.009652   tw=0.00635   t2b=0.127   tfb=0.009652   Area=0.0042645076   TorsConst=9.65117678053953E-08   I33=6.5724174702235E-05 _
        I22=3.30125717301008E-06   I23=0   AS2=0.00193548   AS3=0.00204300666666667   S33=0.00043126098885981   S22=5.19883019371667E-05   Z33=0.0004911874950424   Z22=8.0716532115E-05   R33=0.124144683132414   R22=0.0278230817990979 _
        Color=Red   FromFile=No   AMod=1   A2Mod=1   A3Mod=1   JMod=1   I2Mod=1   I3Mod=1   MMod=1   WMod=1   Notes="Added 01-01-2018 00:01:37"
   SectionName=HSS8X8X3/8   Material=A992Fy50   Shape=Box/Tube   t3=0.2032   t2=0.2032   tf=0.00886460017561913   tw=0.00886460017561913   Area=0.00670966375389099   TorsConst=6.6597028096E-05   I33=4.162314256E-05   I22=4.162314256E-05 _
        I23=0   AS2=0.00360257351137161   AS3=0.00360257351137161   S33=0.0004096766   S22=0.0004096766   Z33=0.000481779675348831   Z22=0.000481779675348831   R33=0.0787620579086349   R22=0.0787620579086349   Color=Magenta   FromFile=Yes _
        AMod=1   A2Mod=1   A3Mod=1   JMod=1   I2Mod=1   I3Mod=1   MMod=1   WMod=1   SectInFile=HSS8X8X3/8   FileName=e:\sap2000\sections8.pro   Notes="Imported 01-01-2018 00:04:19 from SECTIONS8.PRO"
 
TABLE:  "FRAME SECTION PROPERTIES 13 - TIME DEPENDENT"
   SectionName=FSEC1   TypeSize=Auto   AutoSFSize=1
   SectionName=HSS8X8X3/8   TypeSize=Auto   AutoSFSize=1
 
TABLE:  "FUNCTION - PLOT FUNCTIONS"
   PlotFunc="Input Energy"   Type=Energy   Component=Input   Mode=All
 
TABLE:  "FUNCTION - POWER SPECTRAL DENSITY - USER"
   Name=UNIFPSD   Frequency=0   Value=1
   Name=UNIFPSD   Frequency=1   Value=1
 
TABLE:  "FUNCTION - RESPONSE SPECTRUM - USER"
   Name=UNIFRS   Period=0   Accel=1   FuncDamp=0.05
   Name=UNIFRS   Period=1   Accel=1
 
TABLE:  "FUNCTION - STEADY STATE - USER"
   Name=UNIFSS   Frequency=0   Value=1
   Name=UNIFSS   Frequency=1   Value=1
 
TABLE:  "FUNCTION - TIME HISTORY - USER"
   Name=RAMPTH   Time=0   Value=0
   Name=RAMPTH   Time=1   Value=1
   Name=RAMPTH   Time=4   Value=1
   Name=UNIFTH   Time=0   Value=1
   Name=UNIFTH   Time=1   Value=1
 
TABLE:  "GRID LINES"
   CoordSys=GLOBAL   AxisDir=X   GridID=A   XRYZCoord=0   LineType=Primary   LineColor=Gray8Dark   Visible=Yes   BubbleLoc=End   AllVisible=Yes   BubbleSize=6.125
   CoordSys=GLOBAL   AxisDir=X   GridID=B   XRYZCoord=2   LineType=Primary   LineColor=Gray8Dark   Visible=Yes   BubbleLoc=End
   CoordSys=GLOBAL   AxisDir=X   GridID=C   XRYZCoord=4   LineType=Primary   LineColor=Gray8Dark   Visible=Yes   BubbleLoc=End
   CoordSys=GLOBAL   AxisDir=X   GridID=D   XRYZCoord=6   LineType=Primary   LineColor=Gray8Dark   Visible=Yes   BubbleLoc=End
   CoordSys=GLOBAL   AxisDir=X   GridID=E   XRYZCoord=8   LineType=Primary   LineColor=Gray8Dark   Visible=Yes   BubbleLoc=End
   CoordSys=GLOBAL   AxisDir=X   GridID=F   XRYZCoord=10   LineType=Primary   LineColor=Gray8Dark   Visible=Yes   BubbleLoc=End
   CoordSys=GLOBAL   AxisDir=X   GridID=G   XRYZCoord=12   LineType=Primary   LineColor=Gray8Dark   Visible=Yes   BubbleLoc=End
   CoordSys=GLOBAL   AxisDir=X   GridID=H   XRYZCoord=14   LineType=Primary   LineColor=Gray8Dark   Visible=Yes   BubbleLoc=End
   CoordSys=GLOBAL   AxisDir=X   GridID=I   XRYZCoord=16   LineType=Primary   LineColor=Gray8Dark   Visible=Yes   BubbleLoc=End
   CoordSys=GLOBAL   AxisDir=X   GridID=J   XRYZCoord=18   LineType=Primary   LineColor=Gray8Dark   Visible=Yes   BubbleLoc=End
   CoordSys=GLOBAL   AxisDir=X   GridID=K   XRYZCoord=20   LineType=Primary   LineColor=Gray8Dark   Visible=Yes   BubbleLoc=End
   CoordSys=GLOBAL   AxisDir=X   GridID=L   XRYZCoord=22   LineType=Primary   LineColor=Gray8Dark   Visible=Yes   BubbleLoc=End
   CoordSys=GLOBAL   AxisDir=X   GridID=M   XRYZCoord=24   LineType=Primary   LineColor=Gray8Dark   Visible=Yes   BubbleLoc=End
   CoordSys=GLOBAL   AxisDir=X   GridID=N   XRYZCoord=26   LineType=Primary   LineColor=Gray8Dark   Visible=Yes   BubbleLoc=End
   CoordSys=GLOBAL   AxisDir=X   GridID=O   XRYZCoord=28   LineType=Primary   LineColor=Gray8Dark   Visible=Yes   BubbleLoc=End
   CoordSys=GLOBAL   AxisDir=X   GridID=P   XRYZCoord=30   LineType=Primary   LineColor=Gray8Dark   Visible=Yes   BubbleLoc=End
   CoordSys=GLOBAL   AxisDir=X   GridID=Q   XRYZCoord=32   LineType=Primary   LineColor=Gray8Dark   Visible=Yes   BubbleLoc=End
   CoordSys=GLOBAL   AxisDir=X   GridID=R   XRYZCoord=34   LineType=Primary   LineColor=Gray8Dark   Visible=Yes   BubbleLoc=End
   CoordSys=GLOBAL   AxisDir=X   GridID=S   XRYZCoord=36   LineType=Primary   LineColor=Gray8Dark   Visible=Yes   BubbleLoc=End
   CoordSys=GLOBAL   AxisDir=X   GridID=T   XRYZCoord=38   LineType=Primary   LineColor=Gray8Dark   Visible=Yes   BubbleLoc=End
   CoordSys=GLOBAL   AxisDir=X   GridID=U   XRYZCoord=40   LineType=Primary   LineColor=Gray8Dark   Visible=Yes   BubbleLoc=End
   CoordSys=GLOBAL   AxisDir=X   GridID=V   XRYZCoord=42   LineType=Primary   LineColor=Gray8Dark   Visible=Yes   BubbleLoc=End
   CoordSys=GLOBAL   AxisDir=X   GridID=W   XRYZCoord=44   LineType=Primary   LineColor=Gray8Dark   Visible=Yes   BubbleLoc=End
   CoordSys=GLOBAL   AxisDir=X   GridID=X   XRYZCoord=46   LineType=Primary   LineColor=Gray8Dark   Visible=Yes   BubbleLoc=End
   CoordSys=GLOBAL   AxisDir=X   GridID=Y   XRYZCoord=48   LineType=Primary   LineColor=Gray8Dark   Visible=Yes   BubbleLoc=End
   CoordSys=GLOBAL   AxisDir=X   GridID=Z   XRYZCoord=50   LineType=Primary   LineColor=Gray8Dark   Visible=Yes   BubbleLoc=End
   CoordSys=GLOBAL   AxisDir=X   GridID=AA   XRYZCoord=52   LineType=Primary   LineColor=Gray8Dark   Visible=Yes   BubbleLoc=End
   CoordSys=GLOBAL   AxisDir=X   GridID=AB   XRYZCoord=54   LineType=Primary   LineColor=Gray8Dark   Visible=Yes   BubbleLoc=End
   CoordSys=GLOBAL   AxisDir=X   GridID=AC   XRYZCoord=56   LineType=Primary   LineColor=Gray8Dark   Visible=Yes   BubbleLoc=End
   CoordSys=GLOBAL   AxisDir=X   GridID=AD   XRYZCoord=58   LineType=Primary   LineColor=Gray8Dark   Visible=Yes   BubbleLoc=End
   CoordSys=GLOBAL   AxisDir=X   GridID=AE   XRYZCoord=60   LineType=Primary   LineColor=Gray8Dark   Visible=Yes   BubbleLoc=End
   CoordSys=GLOBAL   AxisDir=X   GridID=AF   XRYZCoord=62   LineType=Primary   LineColor=Gray8Dark   Visible=Yes   BubbleLoc=End
   CoordSys=GLOBAL   AxisDir=X   GridID=AG   XRYZCoord=64   LineType=Primary   LineColor=Gray8Dark   Visible=Yes   BubbleLoc=End
   CoordSys=GLOBAL   AxisDir=X   GridID=AH   XRYZCoord=66   LineType=Primary   LineColor=Gray8Dark   Visible=Yes   BubbleLoc=End
   CoordSys=GLOBAL   AxisDir=X   GridID=AI   XRYZCoord=68   LineType=Primary   LineColor=Gray8Dark   Visible=Yes   BubbleLoc=End
   CoordSys=GLOBAL   AxisDir=X   GridID=AJ   XRYZCoord=70   LineType=Primary   LineColor=Gray8Dark   Visible=Yes   BubbleLoc=End
   CoordSys=GLOBAL   AxisDir=X   GridID=AK   XRYZCoord=72   LineType=Primary   LineColor=Gray8Dark   Visible=Yes   BubbleLoc=End
   CoordSys=GLOBAL   AxisDir=X   GridID=AL   XRYZCoord=74   LineType=Primary   LineColor=Gray8Dark   Visible=Yes   BubbleLoc=End
   CoordSys=GLOBAL   AxisDir=X   GridID=AM   XRYZCoord=76   LineType=Primary   LineColor=Gray8Dark   Visible=Yes   BubbleLoc=End
   CoordSys=GLOBAL   AxisDir=X   GridID=AN   XRYZCoord=78   LineType=Primary   LineColor=Gray8Dark   Visible=Yes   BubbleLoc=End
   CoordSys=GLOBAL   AxisDir=Y   GridID=1   XRYZCoord=0   LineType=Primary   LineColor=Gray8Dark   Visible=Yes   BubbleLoc=Start
   CoordSys=GLOBAL   AxisDir=Y   GridID=2   XRYZCoord=48   LineType=Primary   LineColor=Gray8Dark   Visible=Yes   BubbleLoc=Start
   CoordSys=GLOBAL   AxisDir=Z   GridID=Z1   XRYZCoord=0   LineType=Primary   LineColor=Gray8Dark   Visible=Yes   BubbleLoc=End
   CoordSys=GLOBAL   AxisDir=Z   GridID=Z2   XRYZCoord=24   LineType=Primary   LineColor=Gray8Dark   Visible=Yes   BubbleLoc=End
 
TABLE:  "GROUPS 1 - DEFINITIONS"
   GroupName=ALL   Selection=Yes   SectionCut=Yes   Steel=Yes   Concrete=Yes   Aluminum=Yes   ColdFormed=Yes   Stage=Yes   Bridge=Yes   AutoSeismic=No   AutoWind=No   SelDesSteel=No   SelDesAlum=No   SelDesCold=No   MassWeight=Yes   Color=Red
 
TABLE:  "JOINT COORDINATES"
   Joint=4   CoordSys=GLOBAL   CoordType=Cartesian   XorR=0   Y=0   Z=0   SpecialJt=No   GUID=c1dc2dcb-73dc-4d29-9712-424c60a1493a
   Joint=5   CoordSys=GLOBAL   CoordType=Cartesian   XorR=76   Y=0   Z=0   SpecialJt=No   GUID=f9dba822-b112-46cd-b951-aa5751181460
   Joint=6   CoordSys=GLOBAL   CoordType=Cartesian   XorR=62   Y=0   Z=24   SpecialJt=No   GUID=3bab184a-0e97-48b1-a167-b41cd2cfc18a
   Joint=7   CoordSys=GLOBAL   CoordType=Cartesian   XorR=14   Y=0   Z=24   SpecialJt=No   GUID=c2bb3a9a-5e83-4763-b9e1-bf13c3d9c339
   Joint=8   CoordSys=GLOBAL   CoordType=Cartesian   XorR=14   Y=0   Z=0   SpecialJt=No   GUID=cde476c1-210f-4ad0-8e57-b5ac26c09068
   Joint=9   CoordSys=GLOBAL   CoordType=Cartesian   XorR=26   Y=0   Z=0   SpecialJt=No   GUID=a208a1f9-5982-4279-9a33-c789b537f4ba
   Joint=10   CoordSys=GLOBAL   CoordType=Cartesian   XorR=26   Y=0   Z=24   SpecialJt=No   GUID=5cf29a69-b2c7-4075-a10f-80f3f9382802
   Joint=11   CoordSys=GLOBAL   CoordType=Cartesian   XorR=38   Y=0   Z=24   SpecialJt=No   GUID=b60c0cbb-48fa-49f7-9043-9df6528d5841
   Joint=12   CoordSys=GLOBAL   CoordType=Cartesian   XorR=50   Y=0   Z=0   SpecialJt=No   GUID=a4081bbd-5dd2-46e7-b281-9f6a16523b23
   Joint=13   CoordSys=GLOBAL   CoordType=Cartesian   XorR=62   Y=0   Z=0   SpecialJt=No   GUID=882e1e45-4d23-4f08-bf22-06a1c414f7b7
   Joint=14   CoordSys=GLOBAL   CoordType=Cartesian   XorR=50   Y=0   Z=24   SpecialJt=No   GUID=2ec02d4f-6f7c-48d5-837d-cfe1e9b3b2f9
   Joint=15   CoordSys=GLOBAL   CoordType=Cartesian   XorR=38   Y=0   Z=0   SpecialJt=No   GUID=70ee2bc2-f0fc-4ffa-a449-64cd62c06b96
   Joint=16   CoordSys=GLOBAL   CoordType=Cartesian   XorR=14   Y=48   Z=24   SpecialJt=No   GUID=553b5579-3f19-40a8-8f52-be4c96c4b68a
   Joint=17   CoordSys=GLOBAL   CoordType=Cartesian   XorR=62   Y=48   Z=24   SpecialJt=No   GUID=d0c76a70-73f0-48e8-be95-bc51382553ad
   Joint=18   CoordSys=GLOBAL   CoordType=Cartesian   XorR=38   Y=48   Z=24   SpecialJt=No   GUID=d2d61b5f-6498-4eb7-b660-8a0917370327
   Joint=19   CoordSys=GLOBAL   CoordType=Cartesian   XorR=26   Y=48   Z=24   SpecialJt=No   GUID=710ce2e5-3795-421b-8d43-559c587afa0e
   Joint=20   CoordSys=GLOBAL   CoordType=Cartesian   XorR=50   Y=48   Z=24   SpecialJt=No   GUID=39eed30b-3b8c-4e5d-bebb-ae4f217bc899
   Joint=21   CoordSys=GLOBAL   CoordType=Cartesian   XorR=0   Y=48   Z=0   SpecialJt=No   GUID=af474060-cf5d-42cc-a0e9-ae033298c7fd
   Joint=22   CoordSys=GLOBAL   CoordType=Cartesian   XorR=76   Y=48   Z=0   SpecialJt=No   GUID=8c340a3f-f088-4c0f-8797-33b458405236
   Joint=23   CoordSys=GLOBAL   CoordType=Cartesian   XorR=14   Y=48   Z=0   SpecialJt=No   GUID=90d92d08-b6c7-40f1-bf4e-810dd01557e2
   Joint=24   CoordSys=GLOBAL   CoordType=Cartesian   XorR=26   Y=48   Z=0   SpecialJt=No   GUID=473a2ce8-4407-4a5b-b778-f8e3d72dcbf0
   Joint=25   CoordSys=GLOBAL   CoordType=Cartesian   XorR=50   Y=48   Z=0   SpecialJt=No   GUID=c1d61605-f5e9-49d3-88c4-372a31ff0620
   Joint=26   CoordSys=GLOBAL   CoordType=Cartesian   XorR=62   Y=48   Z=0   SpecialJt=No   GUID=db874591-64d2-4733-8aea-3d2f02fa33c0
   Joint=27   CoordSys=GLOBAL   CoordType=Cartesian   XorR=38   Y=48   Z=0   SpecialJt=No   GUID=e7be4aff-179c-4c8b-bc77-5da67396362f
 
TABLE:  "JOINT PATTERN DEFINITIONS"
   Pattern=Default
 
TABLE:  "JOINT RESTRAINT ASSIGNMENTS"
   Joint=4   U1=Yes   U2=Yes   U3=Yes   R1=Yes   R2=Yes   R3=Yes
   Joint=5   U1=Yes   U2=Yes   U3=Yes   R1=Yes   R2=Yes   R3=Yes
   Joint=21   U1=Yes   U2=Yes   U3=Yes   R1=Yes   R2=Yes   R3=Yes
   Joint=22   U1=Yes   U2=Yes   U3=Yes   R1=Yes   R2=Yes   R3=Yes
 
TABLE:  "LOAD CASE DEFINITIONS"
   Case=DEAD   Type=LinStatic   InitialCond=Zero   DesTypeOpt="Prog Det"   DesignType=Dead   DesActOpt="Prog Det"   DesignAct=Non-Composite   AutoType=None   RunCase=Yes   GUID=be2b65ea-4377-4cfb-8f3b-b72846d70760
   Case=MODAL   Type=LinModal   InitialCond=Zero   DesTypeOpt="Prog Det"   DesignType=Other   DesActOpt="Prog Det"   DesignAct=Other   AutoType=None   RunCase=No   GUID=fcffc708-94c9-479d-8416-ba46b3bd2dea
 
TABLE:  "LOAD PATTERN DEFINITIONS"
   LoadPat=DEAD   DesignType=Dead   SelfWtMult=1   GUID=c2def66a-765c-46c1-850e-e6e7899ba394
 
TABLE:  "MASS SOURCE"
   MassSource=MSSSRC1   Elements=Yes   Masses=Yes   Loads=No   IsDefault=Yes
 
TABLE:  "MATERIAL PROPERTIES 01 - GENERAL"
   Material=4000Psi   Type=Concrete   SymType=Isotropic   TempDepend=No   Color=Green   Notes="Customary f'c 4000 psi 01-01-2018 00:00:42"
   Material=A416Gr270   Type=Tendon   Grade="Grade 270"   SymType=Uniaxial   TempDepend=No   Color=Gray8Dark   Notes="ASTM A416 Grade 270 01-11-2018 00:19:13"
   Material=A992Fy50   Type=Steel   SymType=Isotropic   TempDepend=No   Color=Blue   Notes="ASTM A992 Grade 50 01-01-2018 00:00:42"
 
TABLE:  "MATERIAL PROPERTIES 02 - BASIC MECHANICAL PROPERTIES"
   Material=4000Psi   UnitWeight=23.5631216161854   UnitMass=2.40276960558926   E1=24821128.4022568   G12=10342136.8342737   U12=0.2   A1=9.89999952793124E-06
   Material=A416Gr270   UnitWeight=76.9728639422648   UnitMass=7.84904737995992   E1=196500599.8512   A1=1.16999994421006E-05
   Material=A992Fy50   UnitWeight=76.9728639422648   UnitMass=7.84904737995992   E1=199947978.795958   G12=76903068.7676762   U12=0.3   A1=1.16999994421006E-05
 
TABLE:  "MATERIAL PROPERTIES 03A - STEEL DATA"
   Material=A992Fy50   Fy=248211.284022568   Fu=448159.262818526   EffFy=379211.683923368   EffFu=492975.189100378   SSCurveOpt=Simple   SSHysType=Kinematic   SHard=0.015   SMax=0.11   SRup=0.17   FinalSlope=-0.1
 
TABLE:  "MATERIAL PROPERTIES 03B - CONCRETE DATA"
   Material=4000Psi   Fc=27579.0315580631   eFc=27579.0315580631   LtWtConc=No   SSCurveOpt=Mander   SSHysType=Takeda   SFc=0.00221914   SCap=0.005   FinalSlope=-0.1   FAngle=0   DAngle=0
 
TABLE:  "MATERIAL PROPERTIES 03F - TENDON DATA"
   Material=A416Gr270   Fy=1689905.15872032   Fu=1861584.63016926   SSCurveOpt="270 ksi"   SSHysType=Kinematic   FinalSlope=-0.1
 
TABLE:  "MATERIAL PROPERTIES 06 - DAMPING PARAMETERS"
   Material=4000Psi   ModalRatio=0   VisMass=0   VisStiff=0   HysMass=0   HysStiff=0
   Material=A416Gr270   ModalRatio=0   VisMass=0   VisStiff=0   HysMass=0   HysStiff=0
   Material=A992Fy50   ModalRatio=0   VisMass=0   VisStiff=0   HysMass=0   HysStiff=0
 
TABLE:  "OPTIONS - COLORS - DISPLAY"
   DeviceType=Screen   Points=Blue   LinesFrame=Blue   LinesFrmDL=Blue   LinesCable=Green   LinesTendon=Green   SpringLinks=Green   Restraints=Green   Releases=Green   Axes=Cyan   Text=Black   ShadowLines=Gray8Dark   GuideLines=Gray8Dark _
        Highlight=Red   Selection=10504778   AreaFillBot=Red   AreaFillTop=16744703   AreaFillSd=Red   AreaEdge=DarkRed   SolidF1=Red   SolidF2=Blue   SolidF3=Green   SolidF4=Yellow   SolidF5=White   SolidF6=Cyan   SolidEdge=DarkRed _
        Floor=Gray4   Background=White   BGLowLeft=White   BGLowRight=White   BGUpRight=White   Darkness=0.5
   DeviceType=Printer   Points=Gray8Dark   LinesFrame=Black   LinesFrmDL=Gray4   LinesCable=Black   LinesTendon=Black   SpringLinks=Gray8Dark   Restraints=Gray8Dark   Releases=Gray4   Axes=Black   Text=Black   ShadowLines=Gray4 _
        GuideLines=Gray4   Highlight=Black   Selection=Black   AreaFillBot=Gray4   AreaFillTop=Gray8Dark   AreaFillSd=Gray4   AreaEdge=Black   SolidF1=Gray1Light   SolidF2=Gray2   SolidF3=Gray3   SolidF4=Gray4   SolidF5=Gray5 _
        SolidF6=Gray6   SolidEdge=Black   Floor=Gray4   Background=White   BGLowLeft=White   BGLowRight=White   BGUpRight=White   Darkness=0.5
   DeviceType="Color Printer"   Points=Blue   LinesFrame=Blue   LinesFrmDL=Blue   LinesCable=Green   LinesTendon=Green   SpringLinks=Green   Restraints=Green   Releases=Green   Axes=Cyan   Text=Black   ShadowLines=Gray8Dark _
        GuideLines=Gray8Dark   Highlight=Red   Selection=10504778   AreaFillBot=Red   AreaFillTop=16744703   AreaFillSd=Red   AreaEdge=DarkRed   SolidF1=Red   SolidF2=Blue   SolidF3=Green   SolidF4=Yellow   SolidF5=White   SolidF6=Cyan _
        SolidEdge=DarkRed   Floor=Gray4   Background=White   BGLowLeft=White   BGLowRight=White   BGUpRight=White   Darkness=0.5
 
TABLE:  "OPTIONS - COLORS - OUTPUT"
   DeviceType=Screen   Contour1=13107400   Contour2=6553828   Contour3=Red   Contour4=16639   Contour5=Orange   Contour6=43775   Contour7=54527   Contour8=Yellow   Contour9=65408   Contour10=Green   Contour11=8453888   Contour12=Cyan _
        Contour13=16755200   Contour14=16733440   Contour15=Blue   Transpare=0.5   Ratio1=Cyan   Ratio2=Green   Ratio3=Yellow   Ratio4=Orange   Ratio5=Red   RatioNotD=Gray4   RatioNotC=Red   RatioVal1=0.5   RatioVal2=0.7   RatioVal3=0.9 _
        RatioVal4=1   DFillPos=Blue   DFillNeg=Red   DFillRPos=Green   DFillRNeg=Green
   DeviceType=Printer   Contour1=Black   Contour2=3158064   Contour3=4210752   Contour4=5263440   Contour5=6316128   Contour6=7368816   Contour7=Gray8Dark   Contour8=Gray7   Contour9=Gray6   Contour10=Gray5   Contour11=Gray4 _
        Contour12=Gray3   Contour13=Gray2   Contour14=Gray1Light   Contour15=White   Transpare=0   Ratio1=Gray2   Ratio2=Gray4   Ratio3=Gray8Dark   Ratio4=4210752   Ratio5=Black   RatioNotD=Gray4   RatioNotC=Black   RatioVal1=0.5 _
        RatioVal2=0.7   RatioVal3=0.9   RatioVal4=1   DFillPos=Gray8Dark   DFillNeg=Gray8Dark   DFillRPos=4210752   DFillRNeg=4210752
   DeviceType="Color Printer"   Contour1=13107400   Contour2=6553828   Contour3=Red   Contour4=16639   Contour5=Orange   Contour6=43775   Contour7=54527   Contour8=Yellow   Contour9=65408   Contour10=Green   Contour11=8453888 _
        Contour12=Cyan   Contour13=16755200   Contour14=16733440   Contour15=Blue   Transpare=0   Ratio1=Cyan   Ratio2=Green   Ratio3=Yellow   Ratio4=Orange   Ratio5=Red   RatioNotD=Gray4   RatioNotC=Red   RatioVal1=0.5   RatioVal2=0.7 _
        RatioVal3=0.9   RatioVal4=1   DFillPos=Blue   DFillNeg=Red   DFillRPos=Green   DFillRNeg=Green
 
TABLE:  "PREFERENCES - ALUMINUM DESIGN - AA-ASD 2000"
   THDesign=Envelopes   FrameType="Moment Frame"   SRatioLimit=1   MaxIter=1   LatFact=1.33333333333333   UseLatFact=No   Bridge=No
 
TABLE:  "PREFERENCES - COLD FORMED DESIGN - AISI-ASD96"
   THDesign=Envelopes   FrameType="Braced Frame"   SRatioLimit=1   MaxIter=1   OmegaBS=1.67   OmegaBUS=1.67   OmegaBLTB=1.67   OmegaVS=1.67   OmegaVNS=1.5   OmegaT=1.67   OmegaC=1.8
 
TABLE:  "PREFERENCES - CONCRETE DESIGN - ACI 318-14"
   THDesign=Envelopes   NumCurves=24   NumPoints=11   MinEccen=Yes   PatLLF=0.75   UFLimit=0.95   SeisCat=D   Rho=1   Sds=0.5   PhiT=0.9   PhiCTied=0.65   PhiCSpiral=0.75   PhiV=0.75   PhiVSeismic=0.6   PhiVJoint=0.85
 
TABLE:  "PREFERENCES - DIMENSIONAL"
   MergeTol=0.001   FineGrid=0.25   Nudge=0.25   SelectTol=3   SnapTol=12   SLineThick=2   PLineThick=4   MaxFont=8   MinFont=3   AutoZoom=10   ShrinkFact=70   TextFileLen=240
 
TABLE:  "PREFERENCES - STEEL DESIGN - AISC 360-10"
   THDesign=Envelopes   FrameType=SMF   PatLLF=0.75   SRatioLimit=0.95   MaxIter=1   SDC=D   SeisCode=Yes   SeisLoad=Yes   ImpFactor=1   SystemRho=1   SystemSds=0.5   SystemR=8   SystemCd=5.5   Omega0=3   Provision=LRFD _
        AMethod="Direct Analysis"   SOMethod="General 2nd Order"   SRMethod="Tau-b Fixed"   NLCoeff=0.002   PhiB=0.9   PhiC=0.9   PhiTY=0.9   PhiTF=0.75   PhiV=0.9   PhiVRolledI=1   PhiVT=0.9   PlugWeld=Yes   HSSWelding=ERW   HSSReduceT=No _
        CheckDefl=No   DLRat=120   SDLAndLLRat=120   LLRat=360   TotalRat=240   NetRat=240
 
TABLE:  "PROGRAM CONTROL"
   ProgramName=SAP2000   Version=20.2.0   CurrUnits="KN, m, C"   SteelCode="AISC 360-10"   ConcCode="ACI 318-14"   AlumCode="AA-ASD 2000"   ColdCode=AISI-ASD96   RegenHinge=Yes
 
TABLE:  "PROJECT INFORMATION"
   Item="Company Name"
   Item="Client Name"
   Item="Project Name"
   Item="Project Number"
   Item="Model Name"
   Item="Model Description"
   Item="Revision Number"
   Item="Frame Type"
   Item=Engineer
   Item=Checker
   Item=Supervisor
   Item="Issue Code"
   Item="Design Code"
 
TABLE:  "REBAR SIZES"
   RebarID=#2   Area=3.2258E-05   Diameter=0.00635
   RebarID=#3   Area=7.09675996154547E-05   Diameter=0.009525
   RebarID=#4   Area=0.000129032001922727   Diameter=0.0127
   RebarID=#5   Area=0.000199999601538181   Diameter=0.015875
   RebarID=#6   Area=0.000283870398461819   Diameter=0.01905
   RebarID=#7   Area=0.000387096015381813   Diameter=0.022225
   RebarID=#8   Area=0.000509676413843632   Diameter=0.0254
   RebarID=#9   Area=0.00064516   Diameter=0.0286512005329132
   RebarID=#10   Area=0.00081935318769455   Diameter=0.0322579995155334
   RebarID=#11   Area=0.00100644956308365   Diameter=0.0358139991521835
   RebarID=#14   Area=0.00145161   Diameter=0.0430021989583969
   RebarID=#18   Area=0.00258064   Diameter=0.0573277992248535
   RebarID=10M   Area=0.000100000002655387   Diameter=0.011300000667572
   RebarID=15M   Area=0.000200000005310774   Diameter=0.0159999999403954
   RebarID=20M   Area=0.000300000017579794   Diameter=0.0194999997854233
   RebarID=25M   Area=0.000500000022890568   Diameter=0.0252000016093254
   RebarID=30M   Area=0.000700000008974075   Diameter=0.0299000008821487
   RebarID=35M   Area=0.00100000004578114   Diameter=0.0357000011444092
   RebarID=45M   Area=0.00150000010712624   Diameter=0.0437000003576279
   RebarID=55M   Area=0.00250000007599831   Diameter=0.0564000033855438
   RebarID=6d   Area=2.83000004149973E-05   Diameter=0.006000000166893
   RebarID=8d   Area=5.02999995571375E-05   Diameter=0.00799999997019768
   RebarID=10d   Area=7.85000013634562E-05   Diameter=0.00999999977350235
   RebarID=12d   Area=0.000113000009249449   Diameter=0.012000000333786
   RebarID=14d   Area=0.000154000010818839   Diameter=0.0140000008940697
   RebarID=16d   Area=0.000201000015431643   Diameter=0.0159999999403954
   RebarID=20d   Area=0.000314000005453825   Diameter=0.0199999995470047
   RebarID=25d   Area=0.000491000008711815   Diameter=0.0250000001907349
   RebarID=26d   Area=0.000531000029001236   Diameter=0.0259999997138977
   RebarID=28d   Area=0.000616000043275356   Diameter=0.0280000017881393
   RebarID=N12   Area=0.000113000009249449   Diameter=0.012000000333786
   RebarID=N16   Area=0.000201000015431643   Diameter=0.0159999999403954
   RebarID=N20   Area=0.000314000005453825   Diameter=0.0199999995470047
   RebarID=N24   Area=0.000452000036997795   Diameter=0.024000000667572
   RebarID=N28   Area=0.000616000043275356   Diameter=0.0280000017881393
   RebarID=N32   Area=0.00080400006172657   Diameter=0.0319999998807907
   RebarID=N36   Area=0.00102000001747131   Diameter=0.036000001001358
 
TABLE:  "SOLID PROPERTY DEFINITIONS"
   SolidProp=Solid1   Material=4000Psi   MatAngleA=0   MatAngleB=0   MatAngleC=0   InComp=Yes   Color=Blue
 
END TABLE DATA
