File C:\Users\lenovo\OneDrive - IIT Kanpur\Desktop\descon\SAP 2.$2k was saved on m/d/yy at h:mm:ss
 
TABLE:  "ACTIVE DEGREES OF FREEDOM"
   UX=Yes   UY=Yes   UZ=Yes   RX=Yes   RY=Yes   RZ=Yes
 
TABLE:  "ANALYSIS OPTIONS"
   Solver=Advanced   SolverProc=Auto   Force32Bit=No   StiffCase=None   GeomMod=None   HingeOpt="In Elements"
 
TABLE:  "AREA AUTO MESH ASSIGNMENTS"
   Area=1   MeshType="Points On Edges"   MeshGroup=ALL   PtsFromLine=Yes   PtsFromPt=Yes   LocalEdge=No   LocalFace=No   SuppEdge=No   SuppFace=No   SubMesh=No
   Area=2   MeshType="Points On Edges"   MeshGroup=ALL   PtsFromLine=Yes   PtsFromPt=Yes   LocalEdge=No   LocalFace=No   SuppEdge=No   SuppFace=No   SubMesh=No
   Area=3   MeshType="Points On Edges"   MeshGroup=ALL   PtsFromLine=Yes   PtsFromPt=Yes   LocalEdge=No   LocalFace=No   SuppEdge=No   SuppFace=No   SubMesh=No
   Area=4   MeshType="Points On Edges"   MeshGroup=ALL   PtsFromLine=Yes   PtsFromPt=Yes   LocalEdge=No   LocalFace=No   SuppEdge=No   SuppFace=No   SubMesh=No
   Area=5   MeshType="Points On Edges"   MeshGroup=ALL   PtsFromLine=Yes   PtsFromPt=Yes   LocalEdge=No   LocalFace=No   SuppEdge=No   SuppFace=No   SubMesh=No
   Area=6   MeshType="Points On Edges"   MeshGroup=ALL   PtsFromLine=Yes   PtsFromPt=Yes   LocalEdge=No   LocalFace=No   SuppEdge=No   SuppFace=No   SubMesh=No
 
TABLE:  "AREA LOADS - SURFACE PRESSURE"
   Area=1   LoadPat=WIND   Face=Top   Pressure=15   JtPattern=None
   Area=2   LoadPat=WIND   Face=Top   Pressure=15   JtPattern=None
   Area=3   LoadPat=WIND   Face=Top   Pressure=15   JtPattern=None
   Area=4   LoadPat=WIND   Face=Top   Pressure=-6   JtPattern=None
   Area=5   LoadPat=WIND   Face=Top   Pressure=-6   JtPattern=None
   Area=6   LoadPat=WIND   Face=Top   Pressure=-6   JtPattern=None
 
TABLE:  "AREA LOADS - UNIFORM"
   Area=1   LoadPat=LIVE   CoordSys=GLOBAL   Dir=Gravity   UnifLoad=29.5918177149643
   Area=2   LoadPat=LIVE   CoordSys=GLOBAL   Dir=Gravity   UnifLoad=29.5918177149643
   Area=3   LoadPat=LIVE   CoordSys=GLOBAL   Dir=Gravity   UnifLoad=29.5918177149643
   Area=4   LoadPat=LIVE   CoordSys=GLOBAL   Dir=Gravity   UnifLoad=29.5918177149643
   Area=5   LoadPat=LIVE   CoordSys=GLOBAL   Dir=Gravity   UnifLoad=29.5918177149643
   Area=6   LoadPat=LIVE   CoordSys=GLOBAL   Dir=Gravity   UnifLoad=29.5918177149643
 
TABLE:  "AREA SECTION ASSIGNMENTS"
   Area=1   Section=ROOF   MatProp=Default
   Area=2   Section=ROOF   MatProp=Default
   Area=3   Section=ROOF   MatProp=Default
   Area=4   Section=ROOF   MatProp=Default
   Area=5   Section=ROOF   MatProp=Default
   Area=6   Section=ROOF   MatProp=Default
 
TABLE:  "AREA SECTION PROPERTIES"
   Section=ASEC1   Material=A992Fy50   MatAngle=0   AreaType=Shell   Type=Shell-Thin   DrillDOF=Yes   Thickness=1   BendThick=1   Color=Magenta   F11Mod=1   F22Mod=1   F12Mod=1   M11Mod=1   M22Mod=1   M12Mod=1   V13Mod=1   V23Mod=1   MMod=1 _
        WMod=1   Notes="Added 01-01-2018 00:15:45"
   Section=ROOF   Material=4000Psi   MatAngle=0   AreaType=Shell   Type=Shell-Thin   DrillDOF=Yes   Thickness=0.416666666666667   BendThick=0.416666666666667   Color=Cyan   F11Mod=1   F22Mod=1   F12Mod=1   M11Mod=1   M22Mod=1   M12Mod=1 _
        V13Mod=1   V23Mod=1   MMod=1   WMod=1   Notes="Added 01-01-2018 00:16:01"
 
TABLE:  "AREA SECTION PROPERTY DESIGN PARAMETERS"
   Section=ASEC1   RebarMat=None   RebarOpt=Default
   Section=ROOF   RebarMat=None   RebarOpt=Default
 
TABLE:  "AREA SECTION PROPERTY - TIME DEPENDENT"
   Section=ASEC1   TypeSize=Auto   AutoSFSize=1
   Section=ROOF   TypeSize=Auto   AutoSFSize=1
 
TABLE:  "AREA STIFFNESS MODIFIERS"
   Area=1   f11=1   f22=0   f12=1   m11=1   m22=1   m12=1   v13=1   v23=1   MassMod=1   WeightMod=1
   Area=2   f11=1   f22=0   f12=1   m11=1   m22=1   m12=1   v13=1   v23=1   MassMod=1   WeightMod=1
   Area=3   f11=1   f22=0   f12=1   m11=1   m22=1   m12=1   v13=1   v23=1   MassMod=1   WeightMod=1
   Area=4   f11=1   f22=0   f12=1   m11=1   m22=1   m12=1   v13=1   v23=1   MassMod=1   WeightMod=1
   Area=5   f11=1   f22=0   f12=1   m11=1   m22=1   m12=1   v13=1   v23=1   MassMod=1   WeightMod=1
   Area=6   f11=1   f22=0   f12=1   m11=1   m22=1   m12=1   v13=1   v23=1   MassMod=1   WeightMod=1
 
TABLE:  "AUTO COMBINATION OPTION DATA 01 - GENERAL"
   DesignType=Steel   AutoGen=Yes
 
TABLE:  "AUTO COMBINATION OPTION DATA 02 - USER DATA"
   DesignType=Steel   LSType=Strength   LCName=DEAD
   DesignType=Steel   LSType=Strength   LCName=LIVE
   DesignType=Steel   LSType=Strength   LCName=WIND
   DesignType=Steel   LSType=Deflection   LCName=DEAD
   DesignType=Steel   LSType=Deflection   LCName=LIVE
 
TABLE:  "AUTO WAVE 3 - WAVE CHARACTERISTICS - GENERAL"
   WaveChar=Default   WaveType="From Theory"   KinFactor=1   SWaterDepth=150   WaveHeight=60   WavePeriod=12   WaveTheory=Linear
 
TABLE:  "CASE - MODAL 1 - GENERAL"
   Case=MODAL   ModeType=Eigen   MaxNumModes=12   MinNumModes=1   EigenShift=0   EigenCutoff=0   EigenTol=1E-09   AutoShift=Yes
 
TABLE:  "CASE - STATIC 1 - LOAD ASSIGNMENTS"
   Case=DEAD   LoadType="Load pattern"   LoadName=DEAD   LoadSF=1
   Case=LIVE   LoadType="Load pattern"   LoadName=LIVE   LoadSF=1
   Case=WIND   LoadType="Load pattern"   LoadName=WIND   LoadSF=1
 
TABLE:  "COMBINATION DEFINITIONS"
   ComboName=UDSTL1   ComboType="Linear Add"   AutoDesign=No   CaseName=DEAD   ScaleFactor=1.4   SteelDesign=Strength   ConcDesign=None   AlumDesign=None   ColdDesign=None   GUID=b6db0dcd-a4b4-4c27-ab3d-fc2159e4a36e   Notes="Dead Only; Strength"
   ComboName=UDSTL2   ComboType="Linear Add"   AutoDesign=No   CaseName=DEAD   ScaleFactor=1.2   SteelDesign=Strength   ConcDesign=None   AlumDesign=None   ColdDesign=None   GUID=64908a2f-fc70-4f58-bf0c-5bb4fd24b71f   Notes="Dead + Live; Strength"
   ComboName=UDSTL2   CaseName=LIVE   ScaleFactor=1.6
   ComboName=UDSTL3   ComboType="Linear Add"   AutoDesign=No   CaseName=DEAD   ScaleFactor=1.3   SteelDesign=Strength   ConcDesign=None   AlumDesign=None   ColdDesign=None   GUID=b74fd8f0-583c-470c-9e18-fd8449348f27   Notes="Dead + Live + Static Earthquake; Strength"
   ComboName=UDSTL3   CaseName=LIVE   ScaleFactor=1
   ComboName=UDSTL3   CaseName=WIND   ScaleFactor=1
   ComboName=UDSTL4   ComboType="Linear Add"   AutoDesign=No   CaseName=DEAD   ScaleFactor=1.3   SteelDesign=Strength   ConcDesign=None   AlumDesign=None   ColdDesign=None   GUID=c1af1750-3245-484d-bf21-ed39f162461b   Notes="Dead + Live - Static Earthquake; Strength"
   ComboName=UDSTL4   CaseName=LIVE   ScaleFactor=1
   ComboName=UDSTL4   CaseName=WIND   ScaleFactor=-1
   ComboName=UDSTL5   ComboType="Linear Add"   AutoDesign=No   CaseName=DEAD   ScaleFactor=0.8   SteelDesign=Strength   ConcDesign=None   AlumDesign=None   ColdDesign=None   GUID=bf8c645d-d197-49de-9b10-3f9dd96bedd3   Notes="Dead (min) + Static Earthquake; Strength"
   ComboName=UDSTL5   CaseName=WIND   ScaleFactor=1
   ComboName=UDSTL6   ComboType="Linear Add"   AutoDesign=No   CaseName=DEAD   ScaleFactor=0.8   SteelDesign=Strength   ConcDesign=None   AlumDesign=None   ColdDesign=None   GUID=507e2926-12e4-428b-b36d-7ed995106f85   Notes="Dead (min) - Static Earthquake; Strength"
   ComboName=UDSTL6   CaseName=WIND   ScaleFactor=-1
   ComboName=DSTL1   ComboType="Linear Add"   AutoDesign=Yes   CaseName=DEAD   ScaleFactor=1.4   SteelDesign=Strength   ConcDesign=None   AlumDesign=None   ColdDesign=None   GUID=ad37a43f-1307-47dc-ae46-774bcae7f7a1   Notes="Dead Only; Strength"
   ComboName=DSTL2   ComboType="Linear Add"   AutoDesign=Yes   CaseName=DEAD   ScaleFactor=1.2   SteelDesign=Strength   ConcDesign=None   AlumDesign=None   ColdDesign=None   GUID=ed6f8e73-c6b8-411d-84cc-8b37fb31de54   Notes="Dead + Live; Strength"
   ComboName=DSTL2   CaseName=LIVE   ScaleFactor=1.6
   ComboName=DSTL3   ComboType="Linear Add"   AutoDesign=Yes   CaseName=DEAD   ScaleFactor=1.3   SteelDesign=Strength   ConcDesign=None   AlumDesign=None   ColdDesign=None   GUID=c543eff6-ddfe-4b02-9858-515ef1f91d4f   Notes="Dead + Live + Static Earthquake; Strength"
   ComboName=DSTL3   CaseName=LIVE   ScaleFactor=1
   ComboName=DSTL3   CaseName=WIND   ScaleFactor=1
   ComboName=DSTL4   ComboType="Linear Add"   AutoDesign=Yes   CaseName=DEAD   ScaleFactor=1.3   SteelDesign=Strength   ConcDesign=None   AlumDesign=None   ColdDesign=None   GUID=d0ef97d1-1d03-4765-816b-f078fd4f7fc4   Notes="Dead + Live - Static Earthquake; Strength"
   ComboName=DSTL4   CaseName=LIVE   ScaleFactor=1
   ComboName=DSTL4   CaseName=WIND   ScaleFactor=-1
   ComboName=DSTL5   ComboType="Linear Add"   AutoDesign=Yes   CaseName=DEAD   ScaleFactor=0.8   SteelDesign=Strength   ConcDesign=None   AlumDesign=None   ColdDesign=None   GUID=b66708b1-a874-4ad5-992a-5da3bb983d94   Notes="Dead (min) + Static Earthquake; Strength"
   ComboName=DSTL5   CaseName=WIND   ScaleFactor=1
   ComboName=DSTL6   ComboType="Linear Add"   AutoDesign=Yes   CaseName=DEAD   ScaleFactor=0.8   SteelDesign=Strength   ConcDesign=None   AlumDesign=None   ColdDesign=None   GUID=2ad0c0ed-14fb-4350-a7db-ee80b967f0d4   Notes="Dead (min) - Static Earthquake; Strength"
   ComboName=DSTL6   CaseName=WIND   ScaleFactor=-1
   ComboName=DSTL7   ComboType="Linear Add"   AutoDesign=Yes   CaseName=DEAD   ScaleFactor=1   SteelDesign=Deflection   ConcDesign=None   AlumDesign=None   ColdDesign=None   GUID=f7954807-4b1c-4837-bce2-27538403f62a   Notes="Dead Only; Deflection"
   ComboName=DSTL8   ComboType="Linear Add"   AutoDesign=Yes   CaseName=DEAD   ScaleFactor=1   SteelDesign=Deflection   ConcDesign=None   AlumDesign=None   ColdDesign=None   GUID=5e3815da-07df-4a6a-8fb7-2cb531c5efe7   Notes="Dead + Live; Deflection"
   ComboName=DSTL8   CaseName=LIVE   ScaleFactor=1
 
TABLE:  "CONNECTIVITY - AREA"
   Area=1   Joint1=2   Joint2=18   Joint3=32   Joint4=16   GUID=20d988f2-82bf-4e31-a33f-8cf6fe04520a
   Area=2   Joint1=18   Joint2=34   Joint3=48   Joint4=32   GUID=e609eff5-4886-414e-b982-62ac5ed70b05
   Area=3   Joint1=34   Joint2=50   Joint3=64   Joint4=48   GUID=0108c57b-eb59-463e-8640-b0c46a74c619
   Area=4   Joint1=16   Joint2=32   Joint3=20   Joint4=4   GUID=5bd9cc79-0098-468d-b87d-1c0c1642008c
   Area=5   Joint1=32   Joint2=48   Joint3=36   Joint4=20   GUID=57645bdd-4f0b-4f0a-96ac-ffc88a79f512
   Area=6   Joint1=48   Joint2=64   Joint3=52   Joint4=36   GUID=b3c50316-14e2-41ab-8d2a-2d1cb61f9f8a
 
TABLE:  "CONNECTIVITY - FRAME"
   Frame=1   JointI=1   JointJ=2   IsCurved=No   GUID=54232e13-a45b-44d8-a617-59efa74c6a3f
   Frame=2   JointI=3   JointJ=4   IsCurved=No   GUID=d883082f-40d7-46f3-900a-fa77916a2a04
   Frame=3   JointI=5   JointJ=6   IsCurved=No   GUID=38c61f26-45c8-4e87-9b81-56ba276f79c8
   Frame=5   JointI=4   JointJ=7   IsCurved=No   GUID=79214bd7-8de4-4c7f-b1e6-3e0ef19a79c2
   Frame=6   JointI=7   JointJ=8   IsCurved=No   GUID=c3f090a2-a510-4e23-a8fa-44cee182d1da
   Frame=7   JointI=8   JointJ=9   IsCurved=No   GUID=ed3d1646-0799-436c-9828-3e6ba2753e5e
   Frame=8   JointI=9   JointJ=10   IsCurved=No   GUID=07adad9b-ecfc-4f8e-80c0-2d672e51b6be
   Frame=9   JointI=10   JointJ=11   IsCurved=No   GUID=94e26de9-d6ba-4ac2-b659-04928881704b
   Frame=10   JointI=11   JointJ=12   IsCurved=No   GUID=382e2d75-430a-4c0e-bd94-d79eb0c97016
   Frame=11   JointI=12   JointJ=13   IsCurved=No   GUID=ed241610-2fd3-40bd-95fc-7a3571fc025c
   Frame=12   JointI=13   JointJ=14   IsCurved=No   GUID=62c5dafa-9509-4284-9850-b0b715141754
   Frame=13   JointI=14   JointJ=15   IsCurved=No   GUID=0f200887-ece1-45dc-be69-d1118c55e01a
   Frame=14   JointI=15   JointJ=2   IsCurved=No   GUID=23cfb939-4730-4f6f-950b-865f9832ace5
   Frame=15   JointI=16   JointJ=11   IsCurved=No   GUID=e122fc46-8a5b-40bf-98cd-9b13c9c2fad0
   Frame=16   JointI=2   JointJ=16   IsCurved=No   GUID=da8ebb86-c7af-4fda-9488-a8ab05b8763a
   Frame=17   JointI=16   JointJ=4   IsCurved=No   GUID=e09fc98c-dd5e-4430-9bf9-d3f09e551a94
   Frame=18   JointI=17   JointJ=18   IsCurved=No   GUID=fa162e55-67e1-4bd6-8f5a-47c8f8c8a25c
   Frame=19   JointI=19   JointJ=20   IsCurved=No   GUID=33907c4a-9337-4eae-bef3-9866120315e4
   Frame=20   JointI=21   JointJ=22   IsCurved=No   GUID=71b8f10f-8469-4865-89ed-28f0d2cb5680
   Frame=21   JointI=20   JointJ=23   IsCurved=No   GUID=2c0f8fde-c741-4f9d-b71d-0498de867d97
   Frame=22   JointI=23   JointJ=24   IsCurved=No   GUID=6a524fb3-349e-46d3-985f-947937f3808e
   Frame=23   JointI=24   JointJ=25   IsCurved=No   GUID=8e7d70eb-d8f7-44fc-a076-b63fcddae78f
   Frame=24   JointI=25   JointJ=26   IsCurved=No   GUID=42531ae3-c64c-4566-bb39-65c6eb5a07a5
   Frame=25   JointI=26   JointJ=27   IsCurved=No   GUID=1cc1b20d-7a1f-4720-8be3-9803344b3f7e
   Frame=26   JointI=27   JointJ=28   IsCurved=No   GUID=2d046163-fb22-4e59-a524-72480563893a
   Frame=27   JointI=28   JointJ=29   IsCurved=No   GUID=de365721-178d-4f8e-8698-f0d526904d34
   Frame=28   JointI=29   JointJ=30   IsCurved=No   GUID=a15df329-b946-496f-a07a-ddac431ef0d5
   Frame=29   JointI=30   JointJ=31   IsCurved=No   GUID=514272ae-02b9-4a95-8a75-952a570981a6
   Frame=30   JointI=31   JointJ=18   IsCurved=No   GUID=40cf0759-22c5-4cf1-bdcc-b996b4ad3aa7
   Frame=31   JointI=32   JointJ=27   IsCurved=No   GUID=411877ee-2513-42ae-839b-1b80fe386f4c
   Frame=32   JointI=18   JointJ=32   IsCurved=No   GUID=c6421e97-2441-49b5-9b6d-3274cb428de5
   Frame=33   JointI=32   JointJ=20   IsCurved=No   GUID=ff8ac67b-f012-45d4-b75c-f8335f83e28f
   Frame=34   JointI=33   JointJ=34   IsCurved=No   GUID=f02e441b-4ac9-4add-9cc1-e9b73a2d1402
   Frame=35   JointI=35   JointJ=36   IsCurved=No   GUID=791e7f59-e844-4d5b-aebf-d4e5a8870708
   Frame=36   JointI=37   JointJ=38   IsCurved=No   GUID=ab6ca407-e554-4941-9506-bd88bb3865af
   Frame=37   JointI=36   JointJ=39   IsCurved=No   GUID=3de9f77c-2d14-4df4-8784-93a5f4e76291
   Frame=38   JointI=39   JointJ=40   IsCurved=No   GUID=9dc144cf-de23-44f2-832a-a2bc38ab3ab5
   Frame=39   JointI=40   JointJ=41   IsCurved=No   GUID=e94d5d1b-4300-4b5e-b8f1-7559e3ec478b
   Frame=40   JointI=41   JointJ=42   IsCurved=No   GUID=0abb5c03-cf89-4b11-9f8d-6245b9a8943c
   Frame=41   JointI=42   JointJ=43   IsCurved=No   GUID=72303b36-febf-4af2-8ad6-5ebf7d491840
   Frame=42   JointI=43   JointJ=44   IsCurved=No   GUID=e247d3a6-30d3-42c6-b473-239a00be735d
   Frame=43   JointI=44   JointJ=45   IsCurved=No   GUID=95d469d3-b4e3-4d81-9d69-081fe33987d7
   Frame=44   JointI=45   JointJ=46   IsCurved=No   GUID=4be515f2-ea90-40c5-9003-47bb40cb3183
   Frame=45   JointI=46   JointJ=47   IsCurved=No   GUID=a9d821e4-8b9b-47e8-857d-8d684392f21d
   Frame=46   JointI=47   JointJ=34   IsCurved=No   GUID=d8636671-6398-4cd3-96af-78b492706143
   Frame=47   JointI=48   JointJ=43   IsCurved=No   GUID=50aed1bc-da1c-4da4-b37b-47a117cdbb79
   Frame=48   JointI=34   JointJ=48   IsCurved=No   GUID=a2265de0-6b0d-49da-ad7f-af30022c0619
   Frame=49   JointI=48   JointJ=36   IsCurved=No   GUID=575052f6-05c6-4c95-b938-e9b60f378fee
   Frame=50   JointI=49   JointJ=50   IsCurved=No   GUID=ad83e700-0adf-4ab0-80ca-3c8fda88c1e9
   Frame=51   JointI=51   JointJ=52   IsCurved=No   GUID=ea8ac84c-5414-4f06-b3c2-143b414da61e
   Frame=52   JointI=53   JointJ=54   IsCurved=No   GUID=9e9ac77a-6f7b-4d98-b962-67315ef9ff4a
   Frame=53   JointI=52   JointJ=55   IsCurved=No   GUID=e9eb7ade-6dc7-4a35-b38d-708b4adf79b9
   Frame=54   JointI=55   JointJ=56   IsCurved=No   GUID=1325da32-9157-435a-8f14-fcdbe96dfcc2
   Frame=55   JointI=56   JointJ=57   IsCurved=No   GUID=3c847f99-76f4-4eb8-8ca0-48ce3ce664d6
   Frame=56   JointI=57   JointJ=58   IsCurved=No   GUID=ebfcd097-287d-48eb-ba14-6840b067b16c
   Frame=57   JointI=58   JointJ=59   IsCurved=No   GUID=2c570f14-f4a4-4d01-a6cc-1cc9b3f6688e
   Frame=58   JointI=59   JointJ=60   IsCurved=No   GUID=f40c386e-14be-45d1-94d3-011612be60c3
   Frame=59   JointI=60   JointJ=61   IsCurved=No   GUID=0b2a06d9-9c3e-4ed2-ba36-cc57ab3e80bb
   Frame=60   JointI=61   JointJ=62   IsCurved=No   GUID=a365556f-4e49-4213-867f-5d10de9b1478
   Frame=61   JointI=62   JointJ=63   IsCurved=No   GUID=c7cba929-5561-4dbf-951b-6a2a861c0055
   Frame=62   JointI=63   JointJ=50   IsCurved=No   GUID=4b1af6ef-e9c9-4f7a-8e0e-d956727a7779
   Frame=63   JointI=64   JointJ=59   IsCurved=No   GUID=025359df-9f83-4f81-a3af-343e83f557f3
   Frame=64   JointI=50   JointJ=64   IsCurved=No   GUID=aa719041-32ee-4ae2-b76b-4c947d96a41d
   Frame=65   JointI=64   JointJ=52   IsCurved=No   GUID=2faa3916-730b-4c66-8f7f-b42b150480d7
   Frame=66   JointI=2   JointJ=50   IsCurved=No   GUID=855813fd-327f-4dc2-bc40-82f0fa5a9beb
   Frame=67   JointI=5   JointJ=53   IsCurved=No   GUID=6f867aff-0438-49cb-96cf-9d8c167a6205
   Frame=68   JointI=4   JointJ=52   IsCurved=No   GUID=756472cc-2dd1-4d75-a0ee-7b367c8d3bcf
   Frame=69   JointI=6   JointJ=54   IsCurved=No   GUID=f5c0f890-8cd6-494f-b17f-463415abea95
 
TABLE:  "COORDINATE SYSTEMS"
   Name=GLOBAL   Type=Cartesian   X=0   Y=0   Z=0   AboutZ=0   AboutY=0   AboutX=0
 
TABLE:  "DATABASE DOCUMENTATION"
 
TABLE:  "DATABASE FORMAT TYPES"
   UnitsCurr=Yes   OverrideE=No
 
TABLE:  "FRAME AUTO MESH ASSIGNMENTS"
   Frame=1   AutoMesh=Yes   AtJoints=Yes   AtFrames=No   NumSegments=0   MaxLength=0   MaxDegrees=0
   Frame=2   AutoMesh=Yes   AtJoints=Yes   AtFrames=No   NumSegments=0   MaxLength=0   MaxDegrees=0
   Frame=3   AutoMesh=Yes   AtJoints=Yes   AtFrames=No   NumSegments=0   MaxLength=0   MaxDegrees=0
   Frame=5   AutoMesh=Yes   AtJoints=Yes   AtFrames=No   NumSegments=0   MaxLength=0   MaxDegrees=0
   Frame=6   AutoMesh=Yes   AtJoints=Yes   AtFrames=No   NumSegments=0   MaxLength=0   MaxDegrees=0
   Frame=7   AutoMesh=Yes   AtJoints=Yes   AtFrames=No   NumSegments=0   MaxLength=0   MaxDegrees=0
   Frame=8   AutoMesh=Yes   AtJoints=Yes   AtFrames=No   NumSegments=0   MaxLength=0   MaxDegrees=0
   Frame=9   AutoMesh=Yes   AtJoints=Yes   AtFrames=No   NumSegments=0   MaxLength=0   MaxDegrees=0
   Frame=10   AutoMesh=Yes   AtJoints=Yes   AtFrames=No   NumSegments=0   MaxLength=0   MaxDegrees=0
   Frame=11   AutoMesh=Yes   AtJoints=Yes   AtFrames=No   NumSegments=0   MaxLength=0   MaxDegrees=0
   Frame=12   AutoMesh=Yes   AtJoints=Yes   AtFrames=No   NumSegments=0   MaxLength=0   MaxDegrees=0
   Frame=13   AutoMesh=Yes   AtJoints=Yes   AtFrames=No   NumSegments=0   MaxLength=0   MaxDegrees=0
   Frame=14   AutoMesh=Yes   AtJoints=Yes   AtFrames=No   NumSegments=0   MaxLength=0   MaxDegrees=0
   Frame=15   AutoMesh=Yes   AtJoints=Yes   AtFrames=No   NumSegments=0   MaxLength=0   MaxDegrees=0
   Frame=16   AutoMesh=Yes   AtJoints=Yes   AtFrames=No   NumSegments=0   MaxLength=0   MaxDegrees=0
   Frame=17   AutoMesh=Yes   AtJoints=Yes   AtFrames=No   NumSegments=0   MaxLength=0   MaxDegrees=0
   Frame=18   AutoMesh=Yes   AtJoints=Yes   AtFrames=No   NumSegments=0   MaxLength=0   MaxDegrees=0
   Frame=19   AutoMesh=Yes   AtJoints=Yes   AtFrames=No   NumSegments=0   MaxLength=0   MaxDegrees=0
   Frame=20   AutoMesh=Yes   AtJoints=Yes   AtFrames=No   NumSegments=0   MaxLength=0   MaxDegrees=0
   Frame=21   AutoMesh=Yes   AtJoints=Yes   AtFrames=No   NumSegments=0   MaxLength=0   MaxDegrees=0
# ... 44 like lines cut
   Frame=66   AutoMesh=Yes   AtJoints=Yes   AtFrames=Yes   NumSegments=0   MaxLength=0   MaxDegrees=0
   Frame=67   AutoMesh=Yes   AtJoints=Yes   AtFrames=Yes   NumSegments=0   MaxLength=0   MaxDegrees=0
   Frame=68   AutoMesh=Yes   AtJoints=Yes   AtFrames=Yes   NumSegments=0   MaxLength=0   MaxDegrees=0
   Frame=69   AutoMesh=Yes   AtJoints=Yes   AtFrames=Yes   NumSegments=0   MaxLength=0   MaxDegrees=0
 
TABLE:  "FRAME DESIGN PROCEDURES"
   Frame=1   DesignProc="From Material"
   Frame=2   DesignProc="From Material"
   Frame=3   DesignProc="From Material"
   Frame=5   DesignProc="From Material"
   Frame=6   DesignProc="From Material"
   Frame=7   DesignProc="From Material"
   Frame=8   DesignProc="From Material"
   Frame=9   DesignProc="From Material"
   Frame=10   DesignProc="From Material"
   Frame=11   DesignProc="From Material"
   Frame=12   DesignProc="From Material"
   Frame=13   DesignProc="From Material"
   Frame=14   DesignProc="From Material"
   Frame=15   DesignProc="From Material"
   Frame=16   DesignProc="From Material"
   Frame=17   DesignProc="From Material"
   Frame=18   DesignProc="From Material"
   Frame=19   DesignProc="From Material"
   Frame=20   DesignProc="From Material"
   Frame=21   DesignProc="From Material"
# ... 48 like lines cut
 
TABLE:  "FRAME LOAD TRANSFER OPTIONS"
   Frame=1   Transfer=Yes
   Frame=2   Transfer=Yes
   Frame=3   Transfer=Yes
   Frame=5   Transfer=Yes
   Frame=6   Transfer=Yes
   Frame=7   Transfer=Yes
   Frame=8   Transfer=Yes
   Frame=9   Transfer=Yes
   Frame=10   Transfer=Yes
   Frame=11   Transfer=Yes
   Frame=12   Transfer=Yes
   Frame=13   Transfer=Yes
   Frame=14   Transfer=Yes
   Frame=15   Transfer=Yes
   Frame=16   Transfer=Yes
   Frame=17   Transfer=Yes
   Frame=18   Transfer=Yes
   Frame=19   Transfer=Yes
   Frame=20   Transfer=Yes
   Frame=21   Transfer=Yes
# ... 48 like lines cut
 
TABLE:  "FRAME OUTPUT STATION ASSIGNMENTS"
   Frame=1   StationType=MinNumSta   MinNumSta=3   AddAtElmInt=Yes   AddAtPtLoad=Yes
   Frame=2   StationType=MinNumSta   MinNumSta=3   AddAtElmInt=Yes   AddAtPtLoad=Yes
   Frame=3   StationType=MaxStaSpcg   MaxStaSpcg=2   AddAtElmInt=Yes   AddAtPtLoad=Yes
   Frame=5   StationType=MinNumSta   MinNumSta=3   AddAtElmInt=Yes   AddAtPtLoad=Yes
   Frame=6   StationType=MinNumSta   MinNumSta=3   AddAtElmInt=Yes   AddAtPtLoad=Yes
   Frame=7   StationType=MinNumSta   MinNumSta=3   AddAtElmInt=Yes   AddAtPtLoad=Yes
   Frame=8   StationType=MinNumSta   MinNumSta=3   AddAtElmInt=Yes   AddAtPtLoad=Yes
   Frame=9   StationType=MinNumSta   MinNumSta=3   AddAtElmInt=Yes   AddAtPtLoad=Yes
   Frame=10   StationType=MinNumSta   MinNumSta=3   AddAtElmInt=Yes   AddAtPtLoad=Yes
   Frame=11   StationType=MinNumSta   MinNumSta=3   AddAtElmInt=Yes   AddAtPtLoad=Yes
   Frame=12   StationType=MinNumSta   MinNumSta=3   AddAtElmInt=Yes   AddAtPtLoad=Yes
   Frame=13   StationType=MinNumSta   MinNumSta=3   AddAtElmInt=Yes   AddAtPtLoad=Yes
   Frame=14   StationType=MinNumSta   MinNumSta=3   AddAtElmInt=Yes   AddAtPtLoad=Yes
   Frame=15   StationType=MinNumSta   MinNumSta=3   AddAtElmInt=Yes   AddAtPtLoad=Yes
   Frame=16   StationType=MaxStaSpcg   MaxStaSpcg=2   AddAtElmInt=Yes   AddAtPtLoad=Yes
   Frame=17   StationType=MaxStaSpcg   MaxStaSpcg=2   AddAtElmInt=Yes   AddAtPtLoad=Yes
   Frame=18   StationType=MinNumSta   MinNumSta=3   AddAtElmInt=Yes   AddAtPtLoad=Yes
   Frame=19   StationType=MinNumSta   MinNumSta=3   AddAtElmInt=Yes   AddAtPtLoad=Yes
   Frame=20   StationType=MaxStaSpcg   MaxStaSpcg=2   AddAtElmInt=Yes   AddAtPtLoad=Yes
   Frame=21   StationType=MinNumSta   MinNumSta=3   AddAtElmInt=Yes   AddAtPtLoad=Yes
   Frame=22   StationType=MinNumSta   MinNumSta=3   AddAtElmInt=Yes   AddAtPtLoad=Yes
   Frame=23   StationType=MinNumSta   MinNumSta=3   AddAtElmInt=Yes   AddAtPtLoad=Yes
   Frame=24   StationType=MinNumSta   MinNumSta=3   AddAtElmInt=Yes   AddAtPtLoad=Yes
   Frame=25   StationType=MinNumSta   MinNumSta=3   AddAtElmInt=Yes   AddAtPtLoad=Yes
   Frame=26   StationType=MinNumSta   MinNumSta=3   AddAtElmInt=Yes   AddAtPtLoad=Yes
   Frame=27   StationType=MinNumSta   MinNumSta=3   AddAtElmInt=Yes   AddAtPtLoad=Yes
   Frame=28   StationType=MinNumSta   MinNumSta=3   AddAtElmInt=Yes   AddAtPtLoad=Yes
   Frame=29   StationType=MinNumSta   MinNumSta=3   AddAtElmInt=Yes   AddAtPtLoad=Yes
   Frame=30   StationType=MinNumSta   MinNumSta=3   AddAtElmInt=Yes   AddAtPtLoad=Yes
   Frame=31   StationType=MinNumSta   MinNumSta=3   AddAtElmInt=Yes   AddAtPtLoad=Yes
   Frame=32   StationType=MaxStaSpcg   MaxStaSpcg=2   AddAtElmInt=Yes   AddAtPtLoad=Yes
   Frame=33   StationType=MaxStaSpcg   MaxStaSpcg=2   AddAtElmInt=Yes   AddAtPtLoad=Yes
   Frame=34   StationType=MinNumSta   MinNumSta=3   AddAtElmInt=Yes   AddAtPtLoad=Yes
   Frame=35   StationType=MinNumSta   MinNumSta=3   AddAtElmInt=Yes   AddAtPtLoad=Yes
   Frame=36   StationType=MaxStaSpcg   MaxStaSpcg=2   AddAtElmInt=Yes   AddAtPtLoad=Yes
   Frame=37   StationType=MinNumSta   MinNumSta=3   AddAtElmInt=Yes   AddAtPtLoad=Yes
   Frame=38   StationType=MinNumSta   MinNumSta=3   AddAtElmInt=Yes   AddAtPtLoad=Yes
   Frame=39   StationType=MinNumSta   MinNumSta=3   AddAtElmInt=Yes   AddAtPtLoad=Yes
   Frame=40   StationType=MinNumSta   MinNumSta=3   AddAtElmInt=Yes   AddAtPtLoad=Yes
   Frame=41   StationType=MinNumSta   MinNumSta=3   AddAtElmInt=Yes   AddAtPtLoad=Yes
   Frame=42   StationType=MinNumSta   MinNumSta=3   AddAtElmInt=Yes   AddAtPtLoad=Yes
   Frame=43   StationType=MinNumSta   MinNumSta=3   AddAtElmInt=Yes   AddAtPtLoad=Yes
   Frame=44   StationType=MinNumSta   MinNumSta=3   AddAtElmInt=Yes   AddAtPtLoad=Yes
   Frame=45   StationType=MinNumSta   MinNumSta=3   AddAtElmInt=Yes   AddAtPtLoad=Yes
   Frame=46   StationType=MinNumSta   MinNumSta=3   AddAtElmInt=Yes   AddAtPtLoad=Yes
   Frame=47   StationType=MinNumSta   MinNumSta=3   AddAtElmInt=Yes   AddAtPtLoad=Yes
   Frame=48   StationType=MaxStaSpcg   MaxStaSpcg=2   AddAtElmInt=Yes   AddAtPtLoad=Yes
   Frame=49   StationType=MaxStaSpcg   MaxStaSpcg=2   AddAtElmInt=Yes   AddAtPtLoad=Yes
   Frame=50   StationType=MinNumSta   MinNumSta=3   AddAtElmInt=Yes   AddAtPtLoad=Yes
   Frame=51   StationType=MinNumSta   MinNumSta=3   AddAtElmInt=Yes   AddAtPtLoad=Yes
   Frame=52   StationType=MaxStaSpcg   MaxStaSpcg=2   AddAtElmInt=Yes   AddAtPtLoad=Yes
   Frame=53   StationType=MinNumSta   MinNumSta=3   AddAtElmInt=Yes   AddAtPtLoad=Yes
   Frame=54   StationType=MinNumSta   MinNumSta=3   AddAtElmInt=Yes   AddAtPtLoad=Yes
   Frame=55   StationType=MinNumSta   MinNumSta=3   AddAtElmInt=Yes   AddAtPtLoad=Yes
   Frame=56   StationType=MinNumSta   MinNumSta=3   AddAtElmInt=Yes   AddAtPtLoad=Yes
   Frame=57   StationType=MinNumSta   MinNumSta=3   AddAtElmInt=Yes   AddAtPtLoad=Yes
   Frame=58   StationType=MinNumSta   MinNumSta=3   AddAtElmInt=Yes   AddAtPtLoad=Yes
   Frame=59   StationType=MinNumSta   MinNumSta=3   AddAtElmInt=Yes   AddAtPtLoad=Yes
   Frame=60   StationType=MinNumSta   MinNumSta=3   AddAtElmInt=Yes   AddAtPtLoad=Yes
   Frame=61   StationType=MinNumSta   MinNumSta=3   AddAtElmInt=Yes   AddAtPtLoad=Yes
   Frame=62   StationType=MinNumSta   MinNumSta=3   AddAtElmInt=Yes   AddAtPtLoad=Yes
   Frame=63   StationType=MinNumSta   MinNumSta=3   AddAtElmInt=Yes   AddAtPtLoad=Yes
   Frame=64   StationType=MaxStaSpcg   MaxStaSpcg=2   AddAtElmInt=Yes   AddAtPtLoad=Yes
   Frame=65   StationType=MaxStaSpcg   MaxStaSpcg=2   AddAtElmInt=Yes   AddAtPtLoad=Yes
   Frame=66   StationType=MaxStaSpcg   MaxStaSpcg=2   AddAtElmInt=Yes   AddAtPtLoad=Yes
   Frame=67   StationType=MaxStaSpcg   MaxStaSpcg=2   AddAtElmInt=Yes   AddAtPtLoad=Yes
   Frame=68   StationType=MaxStaSpcg   MaxStaSpcg=2   AddAtElmInt=Yes   AddAtPtLoad=Yes
   Frame=69   StationType=MaxStaSpcg   MaxStaSpcg=2   AddAtElmInt=Yes   AddAtPtLoad=Yes
 
TABLE:  "FRAME PROPERTY MODIFIERS"
   Frame=1   AMod=1   AS2Mod=1   AS3Mod=1   JMod=1   I22Mod=1   I33Mod=1   MassMod=1   WeightMod=1
   Frame=2   AMod=1   AS2Mod=1   AS3Mod=1   JMod=1   I22Mod=1   I33Mod=1   MassMod=1   WeightMod=1
   Frame=3   AMod=1   AS2Mod=1   AS3Mod=1   JMod=1   I22Mod=1   I33Mod=1   MassMod=1   WeightMod=1
   Frame=5   AMod=1   AS2Mod=1   AS3Mod=1   JMod=1   I22Mod=1   I33Mod=1   MassMod=1   WeightMod=1
   Frame=6   AMod=1   AS2Mod=1   AS3Mod=1   JMod=1   I22Mod=1   I33Mod=1   MassMod=1   WeightMod=1
   Frame=7   AMod=1   AS2Mod=1   AS3Mod=1   JMod=1   I22Mod=1   I33Mod=1   MassMod=1   WeightMod=1
   Frame=8   AMod=1   AS2Mod=1   AS3Mod=1   JMod=1   I22Mod=1   I33Mod=1   MassMod=1   WeightMod=1
   Frame=9   AMod=1   AS2Mod=1   AS3Mod=1   JMod=1   I22Mod=1   I33Mod=1   MassMod=1   WeightMod=1
   Frame=10   AMod=1   AS2Mod=1   AS3Mod=1   JMod=1   I22Mod=1   I33Mod=1   MassMod=1   WeightMod=1
   Frame=11   AMod=1   AS2Mod=1   AS3Mod=1   JMod=1   I22Mod=1   I33Mod=1   MassMod=1   WeightMod=1
   Frame=12   AMod=1   AS2Mod=1   AS3Mod=1   JMod=1   I22Mod=1   I33Mod=1   MassMod=1   WeightMod=1
   Frame=13   AMod=1   AS2Mod=1   AS3Mod=1   JMod=1   I22Mod=1   I33Mod=1   MassMod=1   WeightMod=1
   Frame=14   AMod=1   AS2Mod=1   AS3Mod=1   JMod=1   I22Mod=1   I33Mod=1   MassMod=1   WeightMod=1
   Frame=15   AMod=1   AS2Mod=1   AS3Mod=1   JMod=1   I22Mod=1   I33Mod=1   MassMod=1   WeightMod=1
   Frame=16   AMod=1   AS2Mod=1   AS3Mod=1   JMod=1   I22Mod=1   I33Mod=1   MassMod=1   WeightMod=1
   Frame=17   AMod=1   AS2Mod=1   AS3Mod=1   JMod=1   I22Mod=1   I33Mod=1   MassMod=1   WeightMod=1
   Frame=18   AMod=1   AS2Mod=1   AS3Mod=1   JMod=1   I22Mod=1   I33Mod=1   MassMod=1   WeightMod=1
   Frame=19   AMod=1   AS2Mod=1   AS3Mod=1   JMod=1   I22Mod=1   I33Mod=1   MassMod=1   WeightMod=1
   Frame=20   AMod=1   AS2Mod=1   AS3Mod=1   JMod=1   I22Mod=1   I33Mod=1   MassMod=1   WeightMod=1
   Frame=21   AMod=1   AS2Mod=1   AS3Mod=1   JMod=1   I22Mod=1   I33Mod=1   MassMod=1   WeightMod=1
# ... 48 like lines cut
 
TABLE:  "FRAME RELEASE ASSIGNMENTS 1 - GENERAL"
   Frame=5   PI=No   V2I=No   V3I=No   TI=No   M2I=No   M3I=Yes   PJ=No   V2J=No   V3J=No   TJ=No   M2J=No   M3J=Yes
   Frame=6   PI=No   V2I=No   V3I=No   TI=No   M2I=No   M3I=Yes   PJ=No   V2J=No   V3J=No   TJ=No   M2J=No   M3J=Yes
   Frame=7   PI=No   V2I=No   V3I=No   TI=No   M2I=No   M3I=Yes   PJ=No   V2J=No   V3J=No   TJ=No   M2J=No   M3J=Yes
   Frame=8   PI=No   V2I=No   V3I=No   TI=No   M2I=No   M3I=Yes   PJ=No   V2J=No   V3J=No   TJ=No   M2J=No   M3J=Yes
   Frame=9   PI=No   V2I=No   V3I=No   TI=No   M2I=No   M3I=Yes   PJ=No   V2J=No   V3J=No   TJ=No   M2J=No   M3J=Yes
   Frame=10   PI=No   V2I=No   V3I=No   TI=No   M2I=No   M3I=Yes   PJ=No   V2J=No   V3J=No   TJ=No   M2J=No   M3J=Yes
   Frame=11   PI=No   V2I=No   V3I=No   TI=No   M2I=No   M3I=Yes   PJ=No   V2J=No   V3J=No   TJ=No   M2J=No   M3J=Yes
   Frame=12   PI=No   V2I=No   V3I=No   TI=No   M2I=No   M3I=Yes   PJ=No   V2J=No   V3J=No   TJ=No   M2J=No   M3J=Yes
   Frame=13   PI=No   V2I=No   V3I=No   TI=No   M2I=No   M3I=Yes   PJ=No   V2J=No   V3J=No   TJ=No   M2J=No   M3J=Yes
   Frame=14   PI=No   V2I=No   V3I=No   TI=No   M2I=No   M3I=Yes   PJ=No   V2J=No   V3J=No   TJ=No   M2J=No   M3J=Yes
   Frame=15   PI=No   V2I=No   V3I=No   TI=No   M2I=No   M3I=Yes   PJ=No   V2J=No   V3J=No   TJ=No   M2J=No   M3J=Yes
   Frame=21   PI=No   V2I=No   V3I=No   TI=No   M2I=No   M3I=Yes   PJ=No   V2J=No   V3J=No   TJ=No   M2J=No   M3J=Yes
   Frame=22   PI=No   V2I=No   V3I=No   TI=No   M2I=No   M3I=Yes   PJ=No   V2J=No   V3J=No   TJ=No   M2J=No   M3J=Yes
   Frame=23   PI=No   V2I=No   V3I=No   TI=No   M2I=No   M3I=Yes   PJ=No   V2J=No   V3J=No   TJ=No   M2J=No   M3J=Yes
   Frame=24   PI=No   V2I=No   V3I=No   TI=No   M2I=No   M3I=Yes   PJ=No   V2J=No   V3J=No   TJ=No   M2J=No   M3J=Yes
   Frame=25   PI=No   V2I=No   V3I=No   TI=No   M2I=No   M3I=Yes   PJ=No   V2J=No   V3J=No   TJ=No   M2J=No   M3J=Yes
   Frame=26   PI=No   V2I=No   V3I=No   TI=No   M2I=No   M3I=Yes   PJ=No   V2J=No   V3J=No   TJ=No   M2J=No   M3J=Yes
   Frame=27   PI=No   V2I=No   V3I=No   TI=No   M2I=No   M3I=Yes   PJ=No   V2J=No   V3J=No   TJ=No   M2J=No   M3J=Yes
   Frame=28   PI=No   V2I=No   V3I=No   TI=No   M2I=No   M3I=Yes   PJ=No   V2J=No   V3J=No   TJ=No   M2J=No   M3J=Yes
   Frame=29   PI=No   V2I=No   V3I=No   TI=No   M2I=No   M3I=Yes   PJ=No   V2J=No   V3J=No   TJ=No   M2J=No   M3J=Yes
# ... 24 like lines cut
 
TABLE:  "FRAME SECTION ASSIGNMENTS"
   Frame=1   AutoSelect=N.A.   AnalSect=HSS8X8X3/8   MatProp=Default
   Frame=2   AutoSelect=N.A.   AnalSect=HSS8X8X3/8   MatProp=Default
   Frame=3   AutoSelect=TRUSS   AnalSect=W8X28   MatProp=Default
   Frame=5   AutoSelect=TRUSS   AnalSect=W8X28   MatProp=Default
   Frame=6   AutoSelect=TRUSS   AnalSect=W8X28   MatProp=Default
   Frame=7   AutoSelect=TRUSS   AnalSect=W8X28   MatProp=Default
   Frame=8   AutoSelect=TRUSS   AnalSect=W8X28   MatProp=Default
   Frame=9   AutoSelect=TRUSS   AnalSect=W8X28   MatProp=Default
   Frame=10   AutoSelect=TRUSS   AnalSect=W8X28   MatProp=Default
   Frame=11   AutoSelect=TRUSS   AnalSect=W8X28   MatProp=Default
   Frame=12   AutoSelect=TRUSS   AnalSect=W8X28   MatProp=Default
   Frame=13   AutoSelect=TRUSS   AnalSect=W8X28   MatProp=Default
   Frame=14   AutoSelect=TRUSS   AnalSect=W8X28   MatProp=Default
   Frame=15   AutoSelect=TRUSS   AnalSect=W8X28   MatProp=Default
   Frame=16   AutoSelect=TRUSS   AnalSect=W8X28   MatProp=Default
   Frame=17   AutoSelect=TRUSS   AnalSect=W8X28   MatProp=Default
   Frame=18   AutoSelect=N.A.   AnalSect=HSS8X8X3/8   MatProp=Default
   Frame=19   AutoSelect=N.A.   AnalSect=HSS8X8X3/8   MatProp=Default
   Frame=20   AutoSelect=TRUSS   AnalSect=W8X28   MatProp=Default
   Frame=21   AutoSelect=TRUSS   AnalSect=W8X28   MatProp=Default
   Frame=22   AutoSelect=TRUSS   AnalSect=W8X28   MatProp=Default
   Frame=23   AutoSelect=TRUSS   AnalSect=W8X28   MatProp=Default
   Frame=24   AutoSelect=TRUSS   AnalSect=W8X28   MatProp=Default
   Frame=25   AutoSelect=TRUSS   AnalSect=W8X28   MatProp=Default
   Frame=26   AutoSelect=TRUSS   AnalSect=W8X28   MatProp=Default
   Frame=27   AutoSelect=TRUSS   AnalSect=W8X28   MatProp=Default
   Frame=28   AutoSelect=TRUSS   AnalSect=W8X28   MatProp=Default
   Frame=29   AutoSelect=TRUSS   AnalSect=W8X28   MatProp=Default
   Frame=30   AutoSelect=TRUSS   AnalSect=W8X28   MatProp=Default
   Frame=31   AutoSelect=TRUSS   AnalSect=W8X28   MatProp=Default
   Frame=32   AutoSelect=TRUSS   AnalSect=W8X28   MatProp=Default
   Frame=33   AutoSelect=TRUSS   AnalSect=W8X28   MatProp=Default
   Frame=34   AutoSelect=N.A.   AnalSect=HSS8X8X3/8   MatProp=Default
   Frame=35   AutoSelect=N.A.   AnalSect=HSS8X8X3/8   MatProp=Default
   Frame=36   AutoSelect=TRUSS   AnalSect=W8X28   MatProp=Default
   Frame=37   AutoSelect=TRUSS   AnalSect=W8X28   MatProp=Default
   Frame=38   AutoSelect=TRUSS   AnalSect=W8X28   MatProp=Default
   Frame=39   AutoSelect=TRUSS   AnalSect=W8X28   MatProp=Default
   Frame=40   AutoSelect=TRUSS   AnalSect=W8X28   MatProp=Default
   Frame=41   AutoSelect=TRUSS   AnalSect=W8X28   MatProp=Default
   Frame=42   AutoSelect=TRUSS   AnalSect=W8X28   MatProp=Default
   Frame=43   AutoSelect=TRUSS   AnalSect=W8X28   MatProp=Default
   Frame=44   AutoSelect=TRUSS   AnalSect=W8X28   MatProp=Default
   Frame=45   AutoSelect=TRUSS   AnalSect=W8X28   MatProp=Default
   Frame=46   AutoSelect=TRUSS   AnalSect=W8X28   MatProp=Default
   Frame=47   AutoSelect=TRUSS   AnalSect=W8X28   MatProp=Default
   Frame=48   AutoSelect=TRUSS   AnalSect=W8X28   MatProp=Default
   Frame=49   AutoSelect=TRUSS   AnalSect=W8X28   MatProp=Default
   Frame=50   AutoSelect=N.A.   AnalSect=HSS8X8X3/8   MatProp=Default
   Frame=51   AutoSelect=N.A.   AnalSect=HSS8X8X3/8   MatProp=Default
   Frame=52   AutoSelect=TRUSS   AnalSect=W8X28   MatProp=Default
   Frame=53   AutoSelect=TRUSS   AnalSect=W8X28   MatProp=Default
   Frame=54   AutoSelect=TRUSS   AnalSect=W8X28   MatProp=Default
   Frame=55   AutoSelect=TRUSS   AnalSect=W8X28   MatProp=Default
   Frame=56   AutoSelect=TRUSS   AnalSect=W8X28   MatProp=Default
   Frame=57   AutoSelect=TRUSS   AnalSect=W8X28   MatProp=Default
   Frame=58   AutoSelect=TRUSS   AnalSect=W8X28   MatProp=Default
   Frame=59   AutoSelect=TRUSS   AnalSect=W8X28   MatProp=Default
   Frame=60   AutoSelect=TRUSS   AnalSect=W8X28   MatProp=Default
   Frame=61   AutoSelect=TRUSS   AnalSect=W8X28   MatProp=Default
   Frame=62   AutoSelect=TRUSS   AnalSect=W8X28   MatProp=Default
   Frame=63   AutoSelect=TRUSS   AnalSect=W8X28   MatProp=Default
   Frame=64   AutoSelect=TRUSS   AnalSect=W8X28   MatProp=Default
   Frame=65   AutoSelect=TRUSS   AnalSect=W8X28   MatProp=Default
   Frame=66   AutoSelect=N.A.   AnalSect=W8X31   MatProp=Default
   Frame=67   AutoSelect=N.A.   AnalSect=W8X31   MatProp=Default
   Frame=68   AutoSelect=N.A.   AnalSect=W8X31   MatProp=Default
   Frame=69   AutoSelect=N.A.   AnalSect=W8X31   MatProp=Default
 
TABLE:  "FRAME SECTION PROPERTIES 01 - GENERAL"
   SectionName=HSS8X8X3/8   Material=A500GrB46   Shape=Box/Tube   t3=0.666666666666667   t2=0.666666666666667   tf=0.0290833339095116   tw=0.0290833339095116   Area=0.0722222195731269   TorsConst=0.00771604938271605 _
        I33=0.00482253086419753   I22=0.00482253086419753   I23=0   AS2=0.0387777785460154   AS3=0.0387777785460154   S33=0.0144675925925926   S22=0.0144675925925926   Z33=0.0170138886681309   Z22=0.0170138886681309   R33=0.258405701799983 _
        R22=0.258405701799983   Color=Red   FromFile=Yes   AMod=1   A2Mod=1   A3Mod=1   JMod=1   I2Mod=1   I3Mod=1   MMod=1   WMod=1   SectInFile=HSS8X8X3/8   FileName=e:\sap2000\sections8.pro   Notes="Imported 01-01-2018 00:09:21 from SECTIONS8.PRO"
   SectionName=TRUSS   Shape="Auto Select"   AutoType=Steel   Color=Yellow   Notes="Imported 01-01-2018 00:09:47 from SECTIONS8.PRO"
   SectionName=W8X10   Material=A992Fy50   Shape="I/Wide Flange"   t3=0.6574999888738   t2=0.328333338101705   tf=0.0170833331843217   tw=0.0141666668156783   t2b=0.328333338101705   tfb=0.0170833331843217   Area=0.0205555558204651 _
        TorsConst=2.05439807168771E-06   I33=0.00148533946937985   I22=0.000100790890922517   I23=0   AS2=0.009314583407508   AS3=0.00934837924109565   S33=0.00451814294909424   S22=0.000613954656601431   Z33=0.00513310178562447 _
        Z22=0.000960648128831828   R33=0.268811750186973   R22=0.0700238571936882   Color=Gray8Dark   FromFile=Yes   AMod=1   A2Mod=1   A3Mod=1   JMod=1   I2Mod=1   I3Mod=1   MMod=1   WMod=1   SectInFile=W8X10 _
        FileName=e:\sap2000\sections8.pro   Notes="Imported 01-01-2018 00:09:47 from SECTIONS8.PRO"
   SectionName=W8X13   Material=A992Fy50   Shape="I/Wide Flange"   t3=0.665833314259847   t2=0.333333333333333   tf=0.0212499996026357   tw=0.0191666670143604   t2b=0.333333333333333   tfb=0.0212499996026357   Area=0.0266666660706202 _
        TorsConst=4.2004243436235E-06   I33=0.00190972214863624   I22=0.000131655093512417   I23=0   AS2=0.0127618056204584   AS3=0.0118055558866925   S33=0.00573633703131579   S22=0.000789930561074504   Z33=0.00659722200146428 _
        Z22=0.00124421301815245   R33=0.267609009890492   R22=0.0702642591725529   Color=Blue   FromFile=Yes   AMod=1   A2Mod=1   A3Mod=1   JMod=1   I2Mod=1   I3Mod=1   MMod=1   WMod=1   SectInFile=W8X13   FileName=e:\sap2000\sections8.pro   Notes="Imported 01-01-2018 00:09:47 from SECTIONS8.PRO"
   SectionName=W8X15   Material=A992Fy50   Shape="I/Wide Flange"   t3=0.675833304723104   t2=0.334166685740153   tf=0.0262499998013178   tw=0.020416667064031   t2b=0.334166685740153   tfb=0.0262499998013178   Area=0.0308333337306976 _
        TorsConst=6.606867019501E-06   I33=0.00231481481481481   I22=0.000164448306608347   I23=0   AS2=0.0137982641657193   AS3=0.0146197908454471   S33=0.00685025374937158   S22=0.000984229210306271   Z33=0.00787037059112831 _
        Z22=0.00154513893304048   R33=0.27399831041002   R22=0.0730305314506765   Color=Green   FromFile=Yes   AMod=1   A2Mod=1   A3Mod=1   JMod=1   I2Mod=1   I3Mod=1   MMod=1   WMod=1   SectInFile=W8X15   FileName=e:\sap2000\sections8.pro   Notes="Imported 01-01-2018 00:09:47 from SECTIONS8.PRO"
   SectionName=W8X18   Material=A992Fy50   Shape="I/Wide Flange"   t3=0.678333361943563   t2=0.4375   tf=0.0275000010927518   tw=0.0191666670143604   t2b=0.4375   tfb=0.0275000010927518   Area=0.036527779367235 _
        TorsConst=8.29475336811609E-06   I33=0.00298514667852425   I22=0.000384355699758471   I23=0   AS2=0.0130013889736599   AS3=0.0200520836644702   S33=0.00880141489715677   S22=0.00175705462746729   Z33=0.00983796296296296 _
        Z22=0.00269675917095608   R33=0.285871725003366   R22=0.102578189000969   Color=Cyan   FromFile=Yes   AMod=1   A2Mod=1   A3Mod=1   JMod=1   I2Mod=1   I3Mod=1   MMod=1   WMod=1   SectInFile=W8X18   FileName=e:\sap2000\sections8.pro   Notes="Imported 01-01-2018 00:09:47 from SECTIONS8.PRO"
   SectionName=W8X21   Material=A992Fy50   Shape="I/Wide Flange"   t3=0.689999977747599   t2=0.439166665077209   tf=0.0333333338300387   tw=0.0208333333333333   t2b=0.439166665077209   tfb=0.0333333338300387   Area=0.0427777767181396 _
        TorsConst=1.35995372899888E-05   I33=0.0036313658879127   I22=0.000471161287507893   I23=0   AS2=0.0143749995364083   AS3=0.024398148059845   S33=0.0105256985652862   S22=0.00214570606093274   Z33=0.0118055553347976 _
        Z22=0.00329282410718777   R33=0.291357297501229   R22=0.104948369403941   Color=Red   FromFile=Yes   AMod=1   A2Mod=1   A3Mod=1   JMod=1   I2Mod=1   I3Mod=1   MMod=1   WMod=1   SectInFile=W8X21   FileName=e:\sap2000\sections8.pro   Notes="Imported 01-01-2018 00:09:47 from SECTIONS8.PRO"
   SectionName=W8X24   Material=A992Fy50   Shape="I/Wide Flange"   t3=0.660833319028219   t2=0.541666666666667   tf=0.0333333338300387   tw=0.020416667064031   t2b=0.541666666666667   tfb=0.0333333338300387   Area=0.0491666661368476 _
        TorsConst=1.66859561117527E-05   I33=0.0039882328775194   I22=0.000882523111355157   I23=0   AS2=0.0134920138451788   AS3=0.0300925936963823   S33=0.0120703141402865   S22=0.00325854687269597   Z33=0.0133680557763135 _
        Z22=0.00495949056413439   R33=0.284809764180954   R22=0.133976202354219   Color=Magenta   FromFile=Yes   AMod=1   A2Mod=1   A3Mod=1   JMod=1   I2Mod=1   I3Mod=1   MMod=1   WMod=1   SectInFile=W8X24 _
        FileName=e:\sap2000\sections8.pro   Notes="Imported 01-01-2018 00:09:47 from SECTIONS8.PRO"
   SectionName=W8X28   Material=A992Fy50   Shape="I/Wide Flange"   t3=0.671666701634725   t2=0.544999996821086   tf=0.0387500002980232   tw=0.0237499997019768   t2b=0.544999996821086   tfb=0.0387500002980232   Area=0.057222220632765 _
        TorsConst=2.58969907637364E-05   I33=0.00472608024691358   I22=0.00104648923432385   I23=0   AS2=0.0159520837995741   AS3=0.0351979169580671   S33=0.0140726947916611   S22=0.00384032748780877   Z33=0.0157407411822566 _
        Z22=0.00584490762816535   R33=0.287387710122625   R22=0.135233730572377   Color=Yellow   FromFile=Yes   AMod=1   A2Mod=1   A3Mod=1   JMod=1   I2Mod=1   I3Mod=1   MMod=1   WMod=1   SectInFile=W8X28   FileName=e:\sap2000\sections8.pro   Notes="Imported 01-01-2018 00:09:47 from SECTIONS8.PRO"
   SectionName=W8X31   Material=A992Fy50   Shape="I/Wide Flange"   t3=0.666666666666667   t2=0.666666666666667   tf=0.0362500001986821   tw=0.0237499997019768   t2b=0.666666666666667   tfb=0.0362500001986821   Area=0.0633333325386047 _
        TorsConst=2.58487660759761E-05   I33=0.00530478395061728   I22=0.0017891588770313   I23=0   AS2=0.0158333331346512   AS3=0.0402777791023254   S33=0.0159143518518518   S22=0.00536747663109391   Z33=0.0175925923718346 _
        Z22=0.00815972244298017   R33=0.289412763436135   R22=0.168076998308057   Color=Gray8Dark   FromFile=Yes   AMod=1   A2Mod=1   A3Mod=1   JMod=1   I2Mod=1   I3Mod=1   MMod=1   WMod=1   SectInFile=W8X31 _
        FileName=e:\sap2000\sections8.pro   Notes="Imported 01-01-2018 00:09:47 from SECTIONS8.PRO"
   SectionName=W8X35   Material=A992Fy50   Shape="I/Wide Flange"   t3=0.676666657129923   t2=0.668333371480306   tf=0.0412500003973643   tw=0.0258333335320155   t2b=0.668333371480306   tfb=0.0412500003973643   Area=0.0715277791023254 _
        TorsConst=3.7085262046736E-05   I33=0.00612461419753086   I22=0.00205439807456217   I23=0   AS2=0.0174805555078718   AS3=0.0459479159779019   S33=0.0181023082281263   S22=0.00614782431112735   Z33=0.0200810189600344 _
        Z22=0.00931712985038757   R33=0.292618647102838   R22=0.169474721676287   Color=Blue   FromFile=Yes   AMod=1   A2Mod=1   A3Mod=1   JMod=1   I2Mod=1   I3Mod=1   MMod=1   WMod=1   SectInFile=W8X35   FileName=e:\sap2000\sections8.pro   Notes="Imported 01-01-2018 00:09:47 from SECTIONS8.PRO"
   SectionName=W8X40   Material=A992Fy50   Shape="I/Wide Flange"   t3=0.6875   t2=0.672499974568685   tf=0.0466666668653488   tw=0.0300000011920929   t2b=0.672499974568685   tfb=0.0466666668653488   Area=0.0812499986754523 _
        TorsConst=5.40123459089685E-05   I33=0.0070408950617284   I22=0.00236786258073501   I23=0   AS2=0.0206250001986821   AS3=0.0523055560059018   S33=0.0204826038159371   S22=0.0070419707666269   Z33=0.0230324069658915 _
        Z22=0.0107060185185185   R33=0.294375901532716   R22=0.170712988801896   Color=Green   FromFile=Yes   AMod=1   A2Mod=1   A3Mod=1   JMod=1   I2Mod=1   I3Mod=1   MMod=1   WMod=1   SectInFile=W8X40   FileName=e:\sap2000\sections8.pro   Notes="Imported 01-01-2018 00:09:47 from SECTIONS8.PRO"
   SectionName=W8X48   Material=A992Fy50   Shape="I/Wide Flange"   t3=0.708333333333333   t2=0.675833304723104   tf=0.0570833335320155   tw=0.0333333338300387   t2b=0.675833304723104   tfb=0.0570833335320155   Area=0.097916669315762 _
        TorsConst=9.45216067779211E-05   I33=0.00887345679012346   I22=0.00293692136988228   I23=0   AS2=0.0236111117733849   AS3=0.0642980337142944   S33=0.0250544662309368   S22=0.0086912596622789   Z33=0.0283564814814815 _
        Z22=0.0132523145940569   R33=0.301035770265416   R22=0.17318801856524   Color=Cyan   FromFile=Yes   AMod=1   A2Mod=1   A3Mod=1   JMod=1   I2Mod=1   I3Mod=1   MMod=1   WMod=1   SectInFile=W8X48   FileName=e:\sap2000\sections8.pro   Notes="Imported 01-01-2018 00:09:47 from SECTIONS8.PRO"
   SectionName=W8X58   Material=A992Fy50   Shape="I/Wide Flange"   t3=0.729166666666667   t2=0.685000022252401   tf=0.0675000001986821   tw=0.0424999992052714   t2b=0.685000022252401   tfb=0.0675000001986821   Area=0.118750002649095 _
        TorsConst=0.000160590274098479   I33=0.0109953703703704   I22=0.00362172060542636   I23=0   AS2=0.0309895839956072   AS3=0.0770625008477105   S33=0.0301587301587302   S22=0.0105743663876609   Z33=0.0346064810399656 _
        Z22=0.0161458331125754   R33=0.304290306331012   R22=0.174638767617042   Color=Red   FromFile=Yes   AMod=1   A2Mod=1   A3Mod=1   JMod=1   I2Mod=1   I3Mod=1   MMod=1   WMod=1   SectInFile=W8X58   FileName=e:\sap2000\sections8.pro   Notes="Imported 01-01-2018 00:09:47 from SECTIONS8.PRO"
   SectionName=W8X67   Material=A992Fy50   Shape="I/Wide Flange"   t3=0.75   t2=0.689999977747599   tf=0.0779166668653488   tw=0.0474999994039536   t2b=0.689999977747599   tfb=0.0779166668653488   Area=0.136805560853746 _
        TorsConst=0.000243537817840223   I33=0.0131172839506173   I22=0.00427276227209303   I23=0   AS2=0.0356250007947286   AS3=0.0896041658189562   S33=0.0349794238683128   S22=0.0123848185793884   Z33=0.0405671287465979 _
        Z22=0.018923611552627   R33=0.309649287100484   R22=0.176726830897391   Color=Yellow   FromFile=Yes   AMod=1   A2Mod=1   A3Mod=1   JMod=1   I2Mod=1   I3Mod=1   MMod=1   WMod=1   SectInFile=W8X67   FileName=e:\sap2000\sections8.pro   Notes="Imported 01-01-2018 00:09:47 from SECTIONS8.PRO"
 
TABLE:  "FRAME SECTION PROPERTIES 04 - AUTO SELECT"
   ListName=TRUSS   SectionName=W8X10
   ListName=TRUSS   SectionName=W8X13
   ListName=TRUSS   SectionName=W8X15
   ListName=TRUSS   SectionName=W8X18
   ListName=TRUSS   SectionName=W8X21
   ListName=TRUSS   SectionName=W8X24
   ListName=TRUSS   SectionName=W8X28
   ListName=TRUSS   SectionName=W8X31
   ListName=TRUSS   SectionName=W8X35
   ListName=TRUSS   SectionName=W8X40
   ListName=TRUSS   SectionName=W8X48
   ListName=TRUSS   SectionName=W8X58
   ListName=TRUSS   SectionName=W8X67
 
TABLE:  "FRAME SECTION PROPERTIES 13 - TIME DEPENDENT"
   SectionName=HSS8X8X3/8   TypeSize=Auto   AutoSFSize=0
   SectionName=W8X10   TypeSize=Auto   AutoSFSize=0
   SectionName=W8X13   TypeSize=Auto   AutoSFSize=0
   SectionName=W8X15   TypeSize=Auto   AutoSFSize=0
   SectionName=W8X18   TypeSize=Auto   AutoSFSize=0
   SectionName=W8X21   TypeSize=Auto   AutoSFSize=0
   SectionName=W8X24   TypeSize=Auto   AutoSFSize=0
   SectionName=W8X28   TypeSize=Auto   AutoSFSize=0
   SectionName=W8X31   TypeSize=Auto   AutoSFSize=0
   SectionName=W8X35   TypeSize=Auto   AutoSFSize=0
   SectionName=W8X40   TypeSize=Auto   AutoSFSize=0
   SectionName=W8X48   TypeSize=Auto   AutoSFSize=0
   SectionName=W8X58   TypeSize=Auto   AutoSFSize=0
   SectionName=W8X67   TypeSize=Auto   AutoSFSize=0
 
TABLE:  "FUNCTION - PLOT FUNCTIONS"
   PlotFunc="Input Energy"   Type=Energy   Component=Input   Mode=All
 
TABLE:  "FUNCTION - POWER SPECTRAL DENSITY - USER"
   Name=UNIFPSD   Frequency=0   Value=1
   Name=UNIFPSD   Frequency=1   Value=1
 
TABLE:  "FUNCTION - RESPONSE SPECTRUM - USER"
   Name=UNIFRS   Period=0   Accel=1   FuncDamp=0.05
   Name=UNIFRS   Period=1   Accel=1
 
TABLE:  "FUNCTION - STEADY STATE - USER"
   Name=UNIFSS   Frequency=0   Value=1
   Name=UNIFSS   Frequency=1   Value=1
 
TABLE:  "FUNCTION - TIME HISTORY - USER"
   Name=RAMPTH   Time=0   Value=0
   Name=RAMPTH   Time=1   Value=1
   Name=RAMPTH   Time=4   Value=1
   Name=UNIFTH   Time=0   Value=1
   Name=UNIFTH   Time=1   Value=1
 
TABLE:  "GRID LINES"
   CoordSys=GLOBAL   AxisDir=X   GridID=A   XRYZCoord=0   LineType=Primary   LineColor=Gray8Dark   Visible=Yes   BubbleLoc=End   AllVisible=Yes   BubbleSize=5.5
   CoordSys=GLOBAL   AxisDir=X   GridID=B   XRYZCoord=36   LineType=Primary   LineColor=Gray8Dark   Visible=Yes   BubbleLoc=End
   CoordSys=GLOBAL   AxisDir=Y   GridID=1   XRYZCoord=0   LineType=Primary   LineColor=Gray8Dark   Visible=Yes   BubbleLoc=Start
   CoordSys=GLOBAL   AxisDir=Y   GridID=2   XRYZCoord=6   LineType=Primary   LineColor=Gray8Dark   Visible=Yes   BubbleLoc=Start
   CoordSys=GLOBAL   AxisDir=Y   GridID=3   XRYZCoord=12   LineType=Primary   LineColor=Gray8Dark   Visible=Yes   BubbleLoc=Start
   CoordSys=GLOBAL   AxisDir=Y   GridID=4   XRYZCoord=18   LineType=Primary   LineColor=Gray8Dark   Visible=Yes   BubbleLoc=Start
   CoordSys=GLOBAL   AxisDir=Y   GridID=5   XRYZCoord=24   LineType=Primary   LineColor=Gray8Dark   Visible=Yes   BubbleLoc=Start
   CoordSys=GLOBAL   AxisDir=Y   GridID=6   XRYZCoord=30   LineType=Primary   LineColor=Gray8Dark   Visible=Yes   BubbleLoc=Start
   CoordSys=GLOBAL   AxisDir=Y   GridID=7   XRYZCoord=36   LineType=Primary   LineColor=Gray8Dark   Visible=Yes   BubbleLoc=Start
   CoordSys=GLOBAL   AxisDir=Z   GridID=Z1   XRYZCoord=0   LineType=Primary   LineColor=Gray8Dark   Visible=Yes   BubbleLoc=End
   CoordSys=GLOBAL   AxisDir=Z   GridID=Z2   XRYZCoord=20   LineType=Primary   LineColor=Gray8Dark   Visible=Yes   BubbleLoc=End
   CoordSys=GLOBAL   AxisDir=Z   GridID=Z3   XRYZCoord=24   LineType=Primary   LineColor=Gray8Dark   Visible=Yes   BubbleLoc=End
 
TABLE:  "GROUPS 1 - DEFINITIONS"
   GroupName=ALL   Selection=Yes   SectionCut=Yes   Steel=Yes   Concrete=Yes   Aluminum=Yes   ColdFormed=Yes   Stage=Yes   Bridge=Yes   AutoSeismic=No   AutoWind=No   SelDesSteel=No   SelDesAlum=No   SelDesCold=No   MassWeight=Yes   Color=Red
 
TABLE:  "JOINT COORDINATES"
   Joint=1   CoordSys=GLOBAL   CoordType=Cartesian   XorR=0   Y=0   Z=0   SpecialJt=No   GUID=57a967d9-bde3-4d12-8fab-2218f71b2bc3
   Joint=2   CoordSys=GLOBAL   CoordType=Cartesian   XorR=0   Y=0   Z=24   SpecialJt=No   GUID=d159bf5d-a49b-446e-bc53-93439f718bb4
   Joint=3   CoordSys=GLOBAL   CoordType=Cartesian   XorR=0   Y=36   Z=0   SpecialJt=No   GUID=e02d12a7-c02a-419b-84f6-2c923f892c1d
   Joint=4   CoordSys=GLOBAL   CoordType=Cartesian   XorR=0   Y=36   Z=24   SpecialJt=No   GUID=4105c85a-e69c-420b-a4e7-36449e9dab8c
   Joint=5   CoordSys=GLOBAL   CoordType=Cartesian   XorR=0   Y=0   Z=20   SpecialJt=No   GUID=eab74494-f971-449e-b51b-c1a47b842c4c
   Joint=6   CoordSys=GLOBAL   CoordType=Cartesian   XorR=0   Y=36   Z=20   SpecialJt=No   GUID=a4274b4e-537f-4672-8250-deb08a43ac69
   Joint=7   CoordSys=GLOBAL   CoordType=Cartesian   XorR=0   Y=30   Z=20   SpecialJt=No   GUID=086a26fb-86bb-4316-904c-41de36e4a913
   Joint=8   CoordSys=GLOBAL   CoordType=Cartesian   XorR=0   Y=30   Z=25   SpecialJt=No   GUID=381455ed-bf27-4ab2-80ab-8e5a3d7797f6
   Joint=9   CoordSys=GLOBAL   CoordType=Cartesian   XorR=0   Y=24   Z=20   SpecialJt=No   GUID=76548a31-65cd-48d1-9477-ed9ddfbfa098
   Joint=10   CoordSys=GLOBAL   CoordType=Cartesian   XorR=0   Y=24   Z=26   SpecialJt=No   GUID=0b8b8240-e0a7-458d-8157-5dbcc7f34859
   Joint=11   CoordSys=GLOBAL   CoordType=Cartesian   XorR=0   Y=18   Z=20   SpecialJt=No   GUID=a5681ed5-9e38-4f8e-8942-1ac0050118a1
   Joint=12   CoordSys=GLOBAL   CoordType=Cartesian   XorR=0   Y=12   Z=26   SpecialJt=No   GUID=17ed1101-90a0-470c-9ec4-183337f639d0
   Joint=13   CoordSys=GLOBAL   CoordType=Cartesian   XorR=0   Y=12   Z=20   SpecialJt=No   GUID=fbcdd688-0932-4ca3-993e-32e73ab03d91
   Joint=14   CoordSys=GLOBAL   CoordType=Cartesian   XorR=0   Y=6   Z=25   SpecialJt=No   GUID=b274be06-1c3a-4730-897a-4a8643506ed7
   Joint=15   CoordSys=GLOBAL   CoordType=Cartesian   XorR=0   Y=6   Z=20   SpecialJt=No   GUID=011f737a-1003-49b0-b291-78fcc9b3ac41
   Joint=16   CoordSys=GLOBAL   CoordType=Cartesian   XorR=0   Y=18   Z=27   SpecialJt=No   GUID=9d6861de-a179-4e56-b33d-4c629b4a0b2d
   Joint=17   CoordSys=GLOBAL   CoordType=Cartesian   XorR=12   Y=0   Z=0   SpecialJt=No   GUID=2eb5938e-6893-4c83-b278-991c41834175
   Joint=18   CoordSys=GLOBAL   CoordType=Cartesian   XorR=12   Y=0   Z=24   SpecialJt=No   GUID=5ba916c6-de85-442a-9310-1aea7ab6c566
   Joint=19   CoordSys=GLOBAL   CoordType=Cartesian   XorR=12   Y=36   Z=0   SpecialJt=No   GUID=43d4bd23-3ab7-4922-8ca0-5a9f3ce5025c
   Joint=20   CoordSys=GLOBAL   CoordType=Cartesian   XorR=12   Y=36   Z=24   SpecialJt=No   GUID=f6be256c-e0e9-4257-aea7-f85791dde03f
   Joint=21   CoordSys=GLOBAL   CoordType=Cartesian   XorR=12   Y=0   Z=20   SpecialJt=No   GUID=abc35a7c-fca0-438d-9d8a-2a02c33a0971
   Joint=22   CoordSys=GLOBAL   CoordType=Cartesian   XorR=12   Y=36   Z=20   SpecialJt=No   GUID=30414c22-1c29-4ba8-8801-3fdf545e5a21
   Joint=23   CoordSys=GLOBAL   CoordType=Cartesian   XorR=12   Y=30   Z=20   SpecialJt=No   GUID=8d1fc89d-7c3f-48d6-adf6-8e26a1fc53b1
   Joint=24   CoordSys=GLOBAL   CoordType=Cartesian   XorR=12   Y=30   Z=25   SpecialJt=No   GUID=18ba9a6c-5cdb-40fa-90b8-07b1679b611e
   Joint=25   CoordSys=GLOBAL   CoordType=Cartesian   XorR=12   Y=24   Z=20   SpecialJt=No   GUID=db2305b4-d63a-490d-942c-a3ea1dcf8947
   Joint=26   CoordSys=GLOBAL   CoordType=Cartesian   XorR=12   Y=24   Z=26   SpecialJt=No   GUID=ba08f5c5-4f1e-4413-a645-153aab4c54c1
   Joint=27   CoordSys=GLOBAL   CoordType=Cartesian   XorR=12   Y=18   Z=20   SpecialJt=No   GUID=eb471cb4-67ef-4e07-9896-63d86ca3e968
   Joint=28   CoordSys=GLOBAL   CoordType=Cartesian   XorR=12   Y=12   Z=26   SpecialJt=No   GUID=bc405444-c369-4cf1-90d9-6315e18fc845
   Joint=29   CoordSys=GLOBAL   CoordType=Cartesian   XorR=12   Y=12   Z=20   SpecialJt=No   GUID=b4096aba-9d5f-4b13-ac3a-f51843df37f1
   Joint=30   CoordSys=GLOBAL   CoordType=Cartesian   XorR=12   Y=6   Z=25   SpecialJt=No   GUID=0ef24f19-a128-4fe5-b7f4-5d009ecb6b71
   Joint=31   CoordSys=GLOBAL   CoordType=Cartesian   XorR=12   Y=6   Z=20   SpecialJt=No   GUID=90d1dc1e-9064-404b-8d63-df11ca49425c
   Joint=32   CoordSys=GLOBAL   CoordType=Cartesian   XorR=12   Y=18   Z=27   SpecialJt=No   GUID=40e1e503-1ac6-40ee-8933-f71a4c80da5f
   Joint=33   CoordSys=GLOBAL   CoordType=Cartesian   XorR=24   Y=0   Z=0   SpecialJt=No   GUID=832fe436-1efb-4e02-839a-35c6721bdca5
   Joint=34   CoordSys=GLOBAL   CoordType=Cartesian   XorR=24   Y=0   Z=24   SpecialJt=No   GUID=6f7a06a7-e207-4daf-95c5-b0f02534201b
   Joint=35   CoordSys=GLOBAL   CoordType=Cartesian   XorR=24   Y=36   Z=0   SpecialJt=No   GUID=fbe64a4f-4f02-49ce-9995-7d1e1bdc4cbf
   Joint=36   CoordSys=GLOBAL   CoordType=Cartesian   XorR=24   Y=36   Z=24   SpecialJt=No   GUID=d8c49649-cdfb-490e-8aa6-a6045dd86be8
   Joint=37   CoordSys=GLOBAL   CoordType=Cartesian   XorR=24   Y=0   Z=20   SpecialJt=No   GUID=50e6e769-6337-4fb5-be8e-badca7a7a422
   Joint=38   CoordSys=GLOBAL   CoordType=Cartesian   XorR=24   Y=36   Z=20   SpecialJt=No   GUID=0388370e-4ded-4814-94d4-498116ef3648
   Joint=39   CoordSys=GLOBAL   CoordType=Cartesian   XorR=24   Y=30   Z=20   SpecialJt=No   GUID=b5684f81-f8b8-40e5-97a2-23f82b89f524
   Joint=40   CoordSys=GLOBAL   CoordType=Cartesian   XorR=24   Y=30   Z=25   SpecialJt=No   GUID=b8dc6a7c-f3e8-41f4-a42c-702f5aadaff7
   Joint=41   CoordSys=GLOBAL   CoordType=Cartesian   XorR=24   Y=24   Z=20   SpecialJt=No   GUID=715ffdcb-6fa5-4c3e-995c-b169acbb1653
   Joint=42   CoordSys=GLOBAL   CoordType=Cartesian   XorR=24   Y=24   Z=26   SpecialJt=No   GUID=2f1ffd11-ad7f-4ee2-9abd-e496c56b6a3f
   Joint=43   CoordSys=GLOBAL   CoordType=Cartesian   XorR=24   Y=18   Z=20   SpecialJt=No   GUID=60df2eaf-8b55-4fd4-b99a-9516a612f73c
   Joint=44   CoordSys=GLOBAL   CoordType=Cartesian   XorR=24   Y=12   Z=26   SpecialJt=No   GUID=c70c73e9-1a7b-41ea-867b-725967a22f71
   Joint=45   CoordSys=GLOBAL   CoordType=Cartesian   XorR=24   Y=12   Z=20   SpecialJt=No   GUID=32600ef1-a596-400e-b0dc-1521f5753bfa
   Joint=46   CoordSys=GLOBAL   CoordType=Cartesian   XorR=24   Y=6   Z=25   SpecialJt=No   GUID=d4e446c0-8fd1-4f96-b0c3-e5cf2ebf6ff0
   Joint=47   CoordSys=GLOBAL   CoordType=Cartesian   XorR=24   Y=6   Z=20   SpecialJt=No   GUID=9f6787f8-7502-434b-9ade-2978f1a02641
   Joint=48   CoordSys=GLOBAL   CoordType=Cartesian   XorR=24   Y=18   Z=27   SpecialJt=No   GUID=2450c39e-d5a5-4f94-8f4b-09e968fd93c4
   Joint=49   CoordSys=GLOBAL   CoordType=Cartesian   XorR=36   Y=0   Z=0   SpecialJt=No   GUID=ff7901bc-7b56-49ea-9539-00d2661fc1a2
   Joint=50   CoordSys=GLOBAL   CoordType=Cartesian   XorR=36   Y=0   Z=24   SpecialJt=No   GUID=409b651e-c297-4191-be3f-01b28b21aa7b
   Joint=51   CoordSys=GLOBAL   CoordType=Cartesian   XorR=36   Y=36   Z=0   SpecialJt=No   GUID=bf2bffc8-bcbc-4106-bfb2-4b2f37630d6f
   Joint=52   CoordSys=GLOBAL   CoordType=Cartesian   XorR=36   Y=36   Z=24   SpecialJt=No   GUID=32c0d5b9-c916-4765-9d6b-353da91a7cd4
   Joint=53   CoordSys=GLOBAL   CoordType=Cartesian   XorR=36   Y=0   Z=20   SpecialJt=No   GUID=f1e31488-2244-454a-aeea-f3f7ccc103cc
   Joint=54   CoordSys=GLOBAL   CoordType=Cartesian   XorR=36   Y=36   Z=20   SpecialJt=No   GUID=d2c8373b-733e-4f4f-be3a-2ff7dc97cc71
   Joint=55   CoordSys=GLOBAL   CoordType=Cartesian   XorR=36   Y=30   Z=20   SpecialJt=No   GUID=d8bff185-0dd1-459d-8563-322724cf7b35
   Joint=56   CoordSys=GLOBAL   CoordType=Cartesian   XorR=36   Y=30   Z=25   SpecialJt=No   GUID=d30f4724-c6d1-4533-b913-6f321f6961ce
   Joint=57   CoordSys=GLOBAL   CoordType=Cartesian   XorR=36   Y=24   Z=20   SpecialJt=No   GUID=56ef8215-1da7-483e-83a0-e883abe14451
   Joint=58   CoordSys=GLOBAL   CoordType=Cartesian   XorR=36   Y=24   Z=26   SpecialJt=No   GUID=39a94a76-e362-41fb-8745-800996a83a38
   Joint=59   CoordSys=GLOBAL   CoordType=Cartesian   XorR=36   Y=18   Z=20   SpecialJt=No   GUID=399008d0-b5c5-4056-bd46-5285c5807912
   Joint=60   CoordSys=GLOBAL   CoordType=Cartesian   XorR=36   Y=12   Z=26   SpecialJt=No   GUID=8db60a68-1555-415f-9173-bd9a2ba0186b
   Joint=61   CoordSys=GLOBAL   CoordType=Cartesian   XorR=36   Y=12   Z=20   SpecialJt=No   GUID=2e124608-d253-4a7c-9b1c-12cbc81c148f
   Joint=62   CoordSys=GLOBAL   CoordType=Cartesian   XorR=36   Y=6   Z=25   SpecialJt=No   GUID=c188cb00-3443-45ae-9ee7-641e7b5835b8
   Joint=63   CoordSys=GLOBAL   CoordType=Cartesian   XorR=36   Y=6   Z=20   SpecialJt=No   GUID=64130b88-2562-4a55-9dcc-f88c0e692350
   Joint=64   CoordSys=GLOBAL   CoordType=Cartesian   XorR=36   Y=18   Z=27   SpecialJt=No   GUID=0debe270-0331-4fbb-b691-5704cf56e1d8
 
TABLE:  "JOINT LOADS - FORCE"
   Joint=7   LoadPat=DEAD   CoordSys=GLOBAL   F1=0   F2=0   F3=-20000   M1=0   M2=0   M3=0   GUID=25dd72cf-e313-40e3-a5b4-3d50c4b0fdac
   Joint=9   LoadPat=DEAD   CoordSys=GLOBAL   F1=0   F2=0   F3=-20000   M1=0   M2=0   M3=0   GUID=40f85b41-81a5-4e72-957a-657fe4accbb8
   Joint=11   LoadPat=DEAD   CoordSys=GLOBAL   F1=0   F2=0   F3=-20000   M1=0   M2=0   M3=0   GUID=cad07c5d-31c2-4e56-b83a-3b48ec7d29ed
   Joint=13   LoadPat=DEAD   CoordSys=GLOBAL   F1=0   F2=0   F3=-20000   M1=0   M2=0   M3=0   GUID=68c27111-77a0-486c-bd03-ac01a02eda79
   Joint=15   LoadPat=DEAD   CoordSys=GLOBAL   F1=0   F2=0   F3=-20000   M1=0   M2=0   M3=0   GUID=d8e38312-69a7-4c13-a0d3-bbe0746ebe92
   Joint=23   LoadPat=DEAD   CoordSys=GLOBAL   F1=0   F2=0   F3=-20000   M1=0   M2=0   M3=0   GUID=25dd72cf-e313-40e3-a5b4-3d50c4b0fdac
   Joint=25   LoadPat=DEAD   CoordSys=GLOBAL   F1=0   F2=0   F3=-20000   M1=0   M2=0   M3=0   GUID=40f85b41-81a5-4e72-957a-657fe4accbb8
   Joint=27   LoadPat=DEAD   CoordSys=GLOBAL   F1=0   F2=0   F3=-20000   M1=0   M2=0   M3=0   GUID=cad07c5d-31c2-4e56-b83a-3b48ec7d29ed
   Joint=29   LoadPat=DEAD   CoordSys=GLOBAL   F1=0   F2=0   F3=-20000   M1=0   M2=0   M3=0   GUID=68c27111-77a0-486c-bd03-ac01a02eda79
   Joint=31   LoadPat=DEAD   CoordSys=GLOBAL   F1=0   F2=0   F3=-20000   M1=0   M2=0   M3=0   GUID=d8e38312-69a7-4c13-a0d3-bbe0746ebe92
   Joint=39   LoadPat=DEAD   CoordSys=GLOBAL   F1=0   F2=0   F3=-20000   M1=0   M2=0   M3=0   GUID=25dd72cf-e313-40e3-a5b4-3d50c4b0fdac
   Joint=41   LoadPat=DEAD   CoordSys=GLOBAL   F1=0   F2=0   F3=-20000   M1=0   M2=0   M3=0   GUID=40f85b41-81a5-4e72-957a-657fe4accbb8
   Joint=43   LoadPat=DEAD   CoordSys=GLOBAL   F1=0   F2=0   F3=-20000   M1=0   M2=0   M3=0   GUID=cad07c5d-31c2-4e56-b83a-3b48ec7d29ed
   Joint=45   LoadPat=DEAD   CoordSys=GLOBAL   F1=0   F2=0   F3=-20000   M1=0   M2=0   M3=0   GUID=68c27111-77a0-486c-bd03-ac01a02eda79
   Joint=47   LoadPat=DEAD   CoordSys=GLOBAL   F1=0   F2=0   F3=-20000   M1=0   M2=0   M3=0   GUID=d8e38312-69a7-4c13-a0d3-bbe0746ebe92
   Joint=55   LoadPat=DEAD   CoordSys=GLOBAL   F1=0   F2=0   F3=-20000   M1=0   M2=0   M3=0   GUID=25dd72cf-e313-40e3-a5b4-3d50c4b0fdac
   Joint=57   LoadPat=DEAD   CoordSys=GLOBAL   F1=0   F2=0   F3=-20000   M1=0   M2=0   M3=0   GUID=40f85b41-81a5-4e72-957a-657fe4accbb8
   Joint=59   LoadPat=DEAD   CoordSys=GLOBAL   F1=0   F2=0   F3=-20000   M1=0   M2=0   M3=0   GUID=cad07c5d-31c2-4e56-b83a-3b48ec7d29ed
   Joint=61   LoadPat=DEAD   CoordSys=GLOBAL   F1=0   F2=0   F3=-20000   M1=0   M2=0   M3=0   GUID=68c27111-77a0-486c-bd03-ac01a02eda79
   Joint=63   LoadPat=DEAD   CoordSys=GLOBAL   F1=0   F2=0   F3=-20000   M1=0   M2=0   M3=0   GUID=d8e38312-69a7-4c13-a0d3-bbe0746ebe92
 
TABLE:  "JOINT PATTERN DEFINITIONS"
   Pattern=Default
 
TABLE:  "JOINT RESTRAINT ASSIGNMENTS"
   Joint=1   U1=Yes   U2=Yes   U3=Yes   R1=No   R2=No   R3=No
   Joint=3   U1=Yes   U2=Yes   U3=Yes   R1=No   R2=No   R3=No
   Joint=17   U1=Yes   U2=Yes   U3=Yes   R1=No   R2=No   R3=No
   Joint=19   U1=Yes   U2=Yes   U3=Yes   R1=No   R2=No   R3=No
   Joint=33   U1=Yes   U2=Yes   U3=Yes   R1=No   R2=No   R3=No
   Joint=35   U1=Yes   U2=Yes   U3=Yes   R1=No   R2=No   R3=No
   Joint=49   U1=Yes   U2=Yes   U3=Yes   R1=No   R2=No   R3=No
   Joint=51   U1=Yes   U2=Yes   U3=Yes   R1=No   R2=No   R3=No
 
TABLE:  "LOAD CASE DEFINITIONS"
   Case=DEAD   Type=LinStatic   InitialCond=Zero   DesTypeOpt="Prog Det"   DesignType=Dead   DesActOpt="Prog Det"   DesignAct=Non-Composite   AutoType=None   RunCase=Yes   GUID=4615678d-7473-42fd-bffc-1aad41d28757
   Case=MODAL   Type=LinModal   InitialCond=Zero   DesTypeOpt="Prog Det"   DesignType=Other   DesActOpt="Prog Det"   DesignAct=Other   AutoType=None   RunCase=No   GUID=1763531c-5e92-43b7-94c0-c5bd0162a7d8
   Case=LIVE   Type=LinStatic   InitialCond=Zero   DesTypeOpt="Prog Det"   DesignType=Live   DesActOpt="Prog Det"   DesignAct="Short-Term Composite"   AutoType=None   RunCase=Yes   GUID=6149c7f4-6f74-4e85-b1b5-e849d982e541
   Case=WIND   Type=LinStatic   InitialCond=Zero   DesTypeOpt="Prog Det"   DesignType=Quake   DesActOpt="Prog Det"   DesignAct="Short-Term Composite"   AutoType=None   RunCase=Yes   GUID=7b5ea5d3-0b27-4606-bf2d-e8077105d1fb
 
TABLE:  "LOAD PATTERN DEFINITIONS"
   LoadPat=DEAD   DesignType=Dead   SelfWtMult=1   GUID=5d4e6fcd-689e-439b-adec-3ec75b2e2b5d
   LoadPat=LIVE   DesignType=Live   SelfWtMult=0   GUID=c92cf30b-9bec-4473-bf50-b9fb803f5103
   LoadPat=WIND   DesignType=Quake   SelfWtMult=0   AutoLoad=None   GUID=16c4b8bf-58f1-4839-b9ee-63bcf49d9c8f
 
TABLE:  "MASS SOURCE"
   MassSource=MSSSRC1   Elements=Yes   Masses=Yes   Loads=No   IsDefault=Yes
 
TABLE:  "MATERIAL PROPERTIES 01 - GENERAL"
   Material=4000Psi   Type=Concrete   SymType=Isotropic   TempDepend=No   Color=Green   Notes="Customary f'c 4000 psi 01-01-2018 00:00:48"
   Material=A416Gr270   Type=Tendon   Grade="Grade 270"   SymType=Uniaxial   TempDepend=No   Color=Red   Notes="ASTM A416 Grade 270 01-11-2018 00:19:54"
   Material=A500GrB46   Type=Steel   SymType=Isotropic   TempDepend=No   Color=Magenta   Notes="United States ASTM A500 Grade B, Fy 46 (HSS Rect.) added 01-01-2018 00:08:26"
   Material=A992Fy50   Type=Steel   SymType=Isotropic   TempDepend=No   Color=Blue   Notes="ASTM A992 Grade 50 01-01-2018 00:00:48"
 
TABLE:  "MATERIAL PROPERTIES 02 - BASIC MECHANICAL PROPERTIES"
   Material=4000Psi   UnitWeight=150.00000000768   UnitMass=4.6621423155456   E1=519119496   G12=216299790   U12=0.2   A1=5.5E-06
   Material=A416Gr270   UnitWeight=490   UnitMass=15.2296649007508   E1=4104000000   A1=6.5E-06
   Material=A500GrB46   UnitWeight=490   UnitMass=15.2296649007508   E1=4176000000   G12=1606153846.15385   U12=0.3   A1=6.5E-06
   Material=A992Fy50   UnitWeight=490   UnitMass=15.2296649007508   E1=4176000000   G12=1606153846.15385   U12=0.3   A1=6.5E-06
 
TABLE:  "MATERIAL PROPERTIES 03A - STEEL DATA"
   Material=A500GrB46   Fy=6624000   Fu=8352000   EffFy=7286400   EffFu=9187200   SSCurveOpt=Simple   SSHysType=Kinematic   SHard=0.018   SMax=0.12   SRup=0.18   FinalSlope=-0.1
   Material=A992Fy50   Fy=7200000   Fu=9360000   EffFy=7920000   EffFu=10296000   SSCurveOpt=Simple   SSHysType=Kinematic   SHard=0.015   SMax=0.11   SRup=0.17   FinalSlope=-0.1
 
TABLE:  "MATERIAL PROPERTIES 03B - CONCRETE DATA"
   Material=4000Psi   Fc=576000   eFc=576000   LtWtConc=No   SSCurveOpt=Mander   SSHysType=Takeda   SFc=0.00221914   SCap=0.005   FinalSlope=-0.1   FAngle=0   DAngle=0
 
TABLE:  "MATERIAL PROPERTIES 03F - TENDON DATA"
   Material=A416Gr270   Fy=35294400   Fu=38880000   SSCurveOpt="270 ksi"   SSHysType=Kinematic   FinalSlope=-0.1
 
TABLE:  "MATERIAL PROPERTIES 06 - DAMPING PARAMETERS"
   Material=4000Psi   ModalRatio=0   VisMass=0   VisStiff=0   HysMass=0   HysStiff=0
   Material=A416Gr270   ModalRatio=0   VisMass=0   VisStiff=0   HysMass=0   HysStiff=0
   Material=A500GrB46   ModalRatio=0   VisMass=0   VisStiff=0   HysMass=0   HysStiff=0
   Material=A992Fy50   ModalRatio=0   VisMass=0   VisStiff=0   HysMass=0   HysStiff=0
 
TABLE:  "OPTIONS - COLORS - DISPLAY"
   DeviceType=Screen   Points=Blue   LinesFrame=Blue   LinesFrmDL=Blue   LinesCable=Green   LinesTendon=Green   SpringLinks=Green   Restraints=Green   Releases=Green   Axes=Cyan   Text=Black   ShadowLines=Gray8Dark   GuideLines=Gray8Dark _
        Highlight=Red   Selection=10504778   AreaFillBot=Red   AreaFillTop=16744703   AreaFillSd=Red   AreaEdge=DarkRed   SolidF1=Red   SolidF2=Blue   SolidF3=Green   SolidF4=Yellow   SolidF5=White   SolidF6=Cyan   SolidEdge=DarkRed _
        Floor=Gray4   Background=White   BGLowLeft=White   BGLowRight=White   BGUpRight=White   Darkness=0.5
   DeviceType=Printer   Points=Gray8Dark   LinesFrame=Black   LinesFrmDL=Gray4   LinesCable=Black   LinesTendon=Black   SpringLinks=Gray8Dark   Restraints=Gray8Dark   Releases=Gray4   Axes=Black   Text=Black   ShadowLines=Gray4 _
        GuideLines=Gray4   Highlight=Black   Selection=Black   AreaFillBot=Gray4   AreaFillTop=Gray8Dark   AreaFillSd=Gray4   AreaEdge=Black   SolidF1=Gray1Light   SolidF2=Gray2   SolidF3=Gray3   SolidF4=Gray4   SolidF5=Gray5 _
        SolidF6=Gray6   SolidEdge=Black   Floor=Gray4   Background=White   BGLowLeft=White   BGLowRight=White   BGUpRight=White   Darkness=0.5
   DeviceType="Color Printer"   Points=Blue   LinesFrame=Blue   LinesFrmDL=Blue   LinesCable=Green   LinesTendon=Green   SpringLinks=Green   Restraints=Green   Releases=Green   Axes=Cyan   Text=Black   ShadowLines=Gray8Dark _
        GuideLines=Gray8Dark   Highlight=Red   Selection=10504778   AreaFillBot=Red   AreaFillTop=16744703   AreaFillSd=Red   AreaEdge=DarkRed   SolidF1=Red   SolidF2=Blue   SolidF3=Green   SolidF4=Yellow   SolidF5=White   SolidF6=Cyan _
        SolidEdge=DarkRed   Floor=Gray4   Background=White   BGLowLeft=White   BGLowRight=White   BGUpRight=White   Darkness=0.5
 
TABLE:  "OPTIONS - COLORS - OUTPUT"
   DeviceType=Screen   Contour1=13107400   Contour2=6553828   Contour3=Red   Contour4=16639   Contour5=Orange   Contour6=43775   Contour7=54527   Contour8=Yellow   Contour9=65408   Contour10=Green   Contour11=8453888   Contour12=Cyan _
        Contour13=16755200   Contour14=16733440   Contour15=Blue   Transpare=0.5   Ratio1=Cyan   Ratio2=Green   Ratio3=Yellow   Ratio4=Orange   Ratio5=Red   RatioNotD=Gray4   RatioNotC=Red   RatioVal1=0.5   RatioVal2=0.7   RatioVal3=0.9 _
        RatioVal4=1   DFillPos=Blue   DFillNeg=Red   DFillRPos=Green   DFillRNeg=Green
   DeviceType=Printer   Contour1=Black   Contour2=3158064   Contour3=4210752   Contour4=5263440   Contour5=6316128   Contour6=7368816   Contour7=Gray8Dark   Contour8=Gray7   Contour9=Gray6   Contour10=Gray5   Contour11=Gray4 _
        Contour12=Gray3   Contour13=Gray2   Contour14=Gray1Light   Contour15=White   Transpare=0   Ratio1=Gray2   Ratio2=Gray4   Ratio3=Gray8Dark   Ratio4=4210752   Ratio5=Black   RatioNotD=Gray4   RatioNotC=Black   RatioVal1=0.5 _
        RatioVal2=0.7   RatioVal3=0.9   RatioVal4=1   DFillPos=Gray8Dark   DFillNeg=Gray8Dark   DFillRPos=4210752   DFillRNeg=4210752
   DeviceType="Color Printer"   Contour1=13107400   Contour2=6553828   Contour3=Red   Contour4=16639   Contour5=Orange   Contour6=43775   Contour7=54527   Contour8=Yellow   Contour9=65408   Contour10=Green   Contour11=8453888 _
        Contour12=Cyan   Contour13=16755200   Contour14=16733440   Contour15=Blue   Transpare=0   Ratio1=Cyan   Ratio2=Green   Ratio3=Yellow   Ratio4=Orange   Ratio5=Red   RatioNotD=Gray4   RatioNotC=Red   RatioVal1=0.5   RatioVal2=0.7 _
        RatioVal3=0.9   RatioVal4=1   DFillPos=Blue   DFillNeg=Red   DFillRPos=Green   DFillRNeg=Green
 
TABLE:  "OVERWRITES - STEEL DESIGN - AISC360-05-IBC2006"
   Frame=1   DesignSect="Program Determined"   FrameType="Program Determined"   Fy=0   RLLF=0   AreaRatio=0   XLMajor=0   XLMinor=0   XLLTB=0   K1Major=0   K1Minor=0   K2Major=0   K2Minor=0   KLTB=0   CmMajor=0   CmMinor=0   Cb=0 _
        B1Major=0   B1Minor=0   B2Major=0   B2Minor=0   HSSReduceT="Program Determined"   HSSWelding="Program Determined"   Omega0=0   Ry=0   Pnc=0   Pnt=0   Mn3=0   Mn2=0   Vn2=0   Vn3=0   CheckDefl="Program Determined" _
        DeflType="Program Determined"   DLRat=0   SDLAndLLRat=0   LLRat=0   TotalRat=0   NetRat=0   DLAbs=0   SDLAndLLAbs=0   LLAbs=0   TotalAbs=0   NetAbs=0   SpecCamber=0   DCLimit=0
   Frame=2   DesignSect="Program Determined"   FrameType="Program Determined"   Fy=0   RLLF=0   AreaRatio=0   XLMajor=0   XLMinor=0   XLLTB=0   K1Major=0   K1Minor=0   K2Major=0   K2Minor=0   KLTB=0   CmMajor=0   CmMinor=0   Cb=0 _
        B1Major=0   B1Minor=0   B2Major=0   B2Minor=0   HSSReduceT="Program Determined"   HSSWelding="Program Determined"   Omega0=0   Ry=0   Pnc=0   Pnt=0   Mn3=0   Mn2=0   Vn2=0   Vn3=0   CheckDefl="Program Determined" _
        DeflType="Program Determined"   DLRat=0   SDLAndLLRat=0   LLRat=0   TotalRat=0   NetRat=0   DLAbs=0   SDLAndLLAbs=0   LLAbs=0   TotalAbs=0   NetAbs=0   SpecCamber=0   DCLimit=0
   Frame=3   DesignSect="Program Determined"   FrameType="Program Determined"   Fy=0   RLLF=0   AreaRatio=0   XLMajor=0   XLMinor=0   XLLTB=0   K1Major=0   K1Minor=0   K2Major=0   K2Minor=0   KLTB=0   CmMajor=0   CmMinor=0   Cb=0 _
        B1Major=0   B1Minor=0   B2Major=0   B2Minor=0   HSSReduceT="Program Determined"   HSSWelding="Program Determined"   Omega0=0   Ry=0   Pnc=0   Pnt=0   Mn3=0   Mn2=0   Vn2=0   Vn3=0   CheckDefl="Program Determined" _
        DeflType="Program Determined"   DLRat=0   SDLAndLLRat=0   LLRat=0   TotalRat=0   NetRat=0   DLAbs=0   SDLAndLLAbs=0   LLAbs=0   TotalAbs=0   NetAbs=0   SpecCamber=0   DCLimit=0
   Frame=5   DesignSect="Program Determined"   FrameType="Program Determined"   Fy=0   RLLF=0   AreaRatio=0   XLMajor=0   XLMinor=0   XLLTB=0   K1Major=0   K1Minor=0   K2Major=0   K2Minor=0   KLTB=0   CmMajor=0   CmMinor=0   Cb=0 _
        B1Major=0   B1Minor=0   B2Major=0   B2Minor=0   HSSReduceT="Program Determined"   HSSWelding="Program Determined"   Omega0=0   Ry=0   Pnc=0   Pnt=0   Mn3=0   Mn2=0   Vn2=0   Vn3=0   CheckDefl="Program Determined" _
        DeflType="Program Determined"   DLRat=0   SDLAndLLRat=0   LLRat=0   TotalRat=0   NetRat=0   DLAbs=0   SDLAndLLAbs=0   LLAbs=0   TotalAbs=0   NetAbs=0   SpecCamber=0   DCLimit=0
   Frame=6   DesignSect="Program Determined"   FrameType="Program Determined"   Fy=0   RLLF=0   AreaRatio=0   XLMajor=0   XLMinor=0   XLLTB=0   K1Major=0   K1Minor=0   K2Major=0   K2Minor=0   KLTB=0   CmMajor=0   CmMinor=0   Cb=0 _
        B1Major=0   B1Minor=0   B2Major=0   B2Minor=0   HSSReduceT="Program Determined"   HSSWelding="Program Determined"   Omega0=0   Ry=0   Pnc=0   Pnt=0   Mn3=0   Mn2=0   Vn2=0   Vn3=0   CheckDefl="Program Determined" _
        DeflType="Program Determined"   DLRat=0   SDLAndLLRat=0   LLRat=0   TotalRat=0   NetRat=0   DLAbs=0   SDLAndLLAbs=0   LLAbs=0   TotalAbs=0   NetAbs=0   SpecCamber=0   DCLimit=0
   Frame=7   DesignSect="Program Determined"   FrameType="Program Determined"   Fy=0   RLLF=0   AreaRatio=0   XLMajor=0   XLMinor=0   XLLTB=0   K1Major=0   K1Minor=0   K2Major=0   K2Minor=0   KLTB=0   CmMajor=0   CmMinor=0   Cb=0 _
        B1Major=0   B1Minor=0   B2Major=0   B2Minor=0   HSSReduceT="Program Determined"   HSSWelding="Program Determined"   Omega0=0   Ry=0   Pnc=0   Pnt=0   Mn3=0   Mn2=0   Vn2=0   Vn3=0   CheckDefl="Program Determined" _
        DeflType="Program Determined"   DLRat=0   SDLAndLLRat=0   LLRat=0   TotalRat=0   NetRat=0   DLAbs=0   SDLAndLLAbs=0   LLAbs=0   TotalAbs=0   NetAbs=0   SpecCamber=0   DCLimit=0
   Frame=8   DesignSect="Program Determined"   FrameType="Program Determined"   Fy=0   RLLF=0   AreaRatio=0   XLMajor=0   XLMinor=0   XLLTB=0   K1Major=0   K1Minor=0   K2Major=0   K2Minor=0   KLTB=0   CmMajor=0   CmMinor=0   Cb=0 _
        B1Major=0   B1Minor=0   B2Major=0   B2Minor=0   HSSReduceT="Program Determined"   HSSWelding="Program Determined"   Omega0=0   Ry=0   Pnc=0   Pnt=0   Mn3=0   Mn2=0   Vn2=0   Vn3=0   CheckDefl="Program Determined" _
        DeflType="Program Determined"   DLRat=0   SDLAndLLRat=0   LLRat=0   TotalRat=0   NetRat=0   DLAbs=0   SDLAndLLAbs=0   LLAbs=0   TotalAbs=0   NetAbs=0   SpecCamber=0   DCLimit=0
   Frame=9   DesignSect="Program Determined"   FrameType="Program Determined"   Fy=0   RLLF=0   AreaRatio=0   XLMajor=0   XLMinor=0   XLLTB=0   K1Major=0   K1Minor=0   K2Major=0   K2Minor=0   KLTB=0   CmMajor=0   CmMinor=0   Cb=0 _
        B1Major=0   B1Minor=0   B2Major=0   B2Minor=0   HSSReduceT="Program Determined"   HSSWelding="Program Determined"   Omega0=0   Ry=0   Pnc=0   Pnt=0   Mn3=0   Mn2=0   Vn2=0   Vn3=0   CheckDefl="Program Determined" _
        DeflType="Program Determined"   DLRat=0   SDLAndLLRat=0   LLRat=0   TotalRat=0   NetRat=0   DLAbs=0   SDLAndLLAbs=0   LLAbs=0   TotalAbs=0   NetAbs=0   SpecCamber=0   DCLimit=0
   Frame=10   DesignSect="Program Determined"   FrameType="Program Determined"   Fy=0   RLLF=0   AreaRatio=0   XLMajor=0   XLMinor=0   XLLTB=0   K1Major=0   K1Minor=0   K2Major=0   K2Minor=0   KLTB=0   CmMajor=0   CmMinor=0   Cb=0 _
        B1Major=0   B1Minor=0   B2Major=0   B2Minor=0   HSSReduceT="Program Determined"   HSSWelding="Program Determined"   Omega0=0   Ry=0   Pnc=0   Pnt=0   Mn3=0   Mn2=0   Vn2=0   Vn3=0   CheckDefl="Program Determined" _
        DeflType="Program Determined"   DLRat=0   SDLAndLLRat=0   LLRat=0   TotalRat=0   NetRat=0   DLAbs=0   SDLAndLLAbs=0   LLAbs=0   TotalAbs=0   NetAbs=0   SpecCamber=0   DCLimit=0
   Frame=11   DesignSect="Program Determined"   FrameType="Program Determined"   Fy=0   RLLF=0   AreaRatio=0   XLMajor=0   XLMinor=0   XLLTB=0   K1Major=0   K1Minor=0   K2Major=0   K2Minor=0   KLTB=0   CmMajor=0   CmMinor=0   Cb=0 _
        B1Major=0   B1Minor=0   B2Major=0   B2Minor=0   HSSReduceT="Program Determined"   HSSWelding="Program Determined"   Omega0=0   Ry=0   Pnc=0   Pnt=0   Mn3=0   Mn2=0   Vn2=0   Vn3=0   CheckDefl="Program Determined" _
        DeflType="Program Determined"   DLRat=0   SDLAndLLRat=0   LLRat=0   TotalRat=0   NetRat=0   DLAbs=0   SDLAndLLAbs=0   LLAbs=0   TotalAbs=0   NetAbs=0   SpecCamber=0   DCLimit=0
   Frame=12   DesignSect="Program Determined"   FrameType="Program Determined"   Fy=0   RLLF=0   AreaRatio=0   XLMajor=0   XLMinor=0   XLLTB=0   K1Major=0   K1Minor=0   K2Major=0   K2Minor=0   KLTB=0   CmMajor=0   CmMinor=0   Cb=0 _
        B1Major=0   B1Minor=0   B2Major=0   B2Minor=0   HSSReduceT="Program Determined"   HSSWelding="Program Determined"   Omega0=0   Ry=0   Pnc=0   Pnt=0   Mn3=0   Mn2=0   Vn2=0   Vn3=0   CheckDefl="Program Determined" _
        DeflType="Program Determined"   DLRat=0   SDLAndLLRat=0   LLRat=0   TotalRat=0   NetRat=0   DLAbs=0   SDLAndLLAbs=0   LLAbs=0   TotalAbs=0   NetAbs=0   SpecCamber=0   DCLimit=0
   Frame=13   DesignSect="Program Determined"   FrameType="Program Determined"   Fy=0   RLLF=0   AreaRatio=0   XLMajor=0   XLMinor=0   XLLTB=0   K1Major=0   K1Minor=0   K2Major=0   K2Minor=0   KLTB=0   CmMajor=0   CmMinor=0   Cb=0 _
        B1Major=0   B1Minor=0   B2Major=0   B2Minor=0   HSSReduceT="Program Determined"   HSSWelding="Program Determined"   Omega0=0   Ry=0   Pnc=0   Pnt=0   Mn3=0   Mn2=0   Vn2=0   Vn3=0   CheckDefl="Program Determined" _
        DeflType="Program Determined"   DLRat=0   SDLAndLLRat=0   LLRat=0   TotalRat=0   NetRat=0   DLAbs=0   SDLAndLLAbs=0   LLAbs=0   TotalAbs=0   NetAbs=0   SpecCamber=0   DCLimit=0
   Frame=14   DesignSect="Program Determined"   FrameType="Program Determined"   Fy=0   RLLF=0   AreaRatio=0   XLMajor=0   XLMinor=0   XLLTB=0   K1Major=0   K1Minor=0   K2Major=0   K2Minor=0   KLTB=0   CmMajor=0   CmMinor=0   Cb=0 _
        B1Major=0   B1Minor=0   B2Major=0   B2Minor=0   HSSReduceT="Program Determined"   HSSWelding="Program Determined"   Omega0=0   Ry=0   Pnc=0   Pnt=0   Mn3=0   Mn2=0   Vn2=0   Vn3=0   CheckDefl="Program Determined" _
        DeflType="Program Determined"   DLRat=0   SDLAndLLRat=0   LLRat=0   TotalRat=0   NetRat=0   DLAbs=0   SDLAndLLAbs=0   LLAbs=0   TotalAbs=0   NetAbs=0   SpecCamber=0   DCLimit=0
   Frame=15   DesignSect="Program Determined"   FrameType="Program Determined"   Fy=0   RLLF=0   AreaRatio=0   XLMajor=0   XLMinor=0   XLLTB=0   K1Major=0   K1Minor=0   K2Major=0   K2Minor=0   KLTB=0   CmMajor=0   CmMinor=0   Cb=0 _
        B1Major=0   B1Minor=0   B2Major=0   B2Minor=0   HSSReduceT="Program Determined"   HSSWelding="Program Determined"   Omega0=0   Ry=0   Pnc=0   Pnt=0   Mn3=0   Mn2=0   Vn2=0   Vn3=0   CheckDefl="Program Determined" _
        DeflType="Program Determined"   DLRat=0   SDLAndLLRat=0   LLRat=0   TotalRat=0   NetRat=0   DLAbs=0   SDLAndLLAbs=0   LLAbs=0   TotalAbs=0   NetAbs=0   SpecCamber=0   DCLimit=0
   Frame=16   DesignSect="Program Determined"   FrameType="Program Determined"   Fy=0   RLLF=0   AreaRatio=0   XLMajor=0   XLMinor=0   XLLTB=0   K1Major=0   K1Minor=0   K2Major=0   K2Minor=0   KLTB=0   CmMajor=0   CmMinor=0   Cb=0 _
        B1Major=0   B1Minor=0   B2Major=0   B2Minor=0   HSSReduceT="Program Determined"   HSSWelding="Program Determined"   Omega0=0   Ry=0   Pnc=0   Pnt=0   Mn3=0   Mn2=0   Vn2=0   Vn3=0   CheckDefl="Program Determined" _
        DeflType="Program Determined"   DLRat=0   SDLAndLLRat=0   LLRat=0   TotalRat=0   NetRat=0   DLAbs=0   SDLAndLLAbs=0   LLAbs=0   TotalAbs=0   NetAbs=0   SpecCamber=0   DCLimit=0
   Frame=17   DesignSect="Program Determined"   FrameType="Program Determined"   Fy=0   RLLF=0   AreaRatio=0   XLMajor=0   XLMinor=0   XLLTB=0   K1Major=0   K1Minor=0   K2Major=0   K2Minor=0   KLTB=0   CmMajor=0   CmMinor=0   Cb=0 _
        B1Major=0   B1Minor=0   B2Major=0   B2Minor=0   HSSReduceT="Program Determined"   HSSWelding="Program Determined"   Omega0=0   Ry=0   Pnc=0   Pnt=0   Mn3=0   Mn2=0   Vn2=0   Vn3=0   CheckDefl="Program Determined" _
        DeflType="Program Determined"   DLRat=0   SDLAndLLRat=0   LLRat=0   TotalRat=0   NetRat=0   DLAbs=0   SDLAndLLAbs=0   LLAbs=0   TotalAbs=0   NetAbs=0   SpecCamber=0   DCLimit=0
   Frame=18   DesignSect="Program Determined"   FrameType="Program Determined"   Fy=0   RLLF=0   AreaRatio=0   XLMajor=0   XLMinor=0   XLLTB=0   K1Major=0   K1Minor=0   K2Major=0   K2Minor=0   KLTB=0   CmMajor=0   CmMinor=0   Cb=0 _
        B1Major=0   B1Minor=0   B2Major=0   B2Minor=0   HSSReduceT="Program Determined"   HSSWelding="Program Determined"   Omega0=0   Ry=0   Pnc=0   Pnt=0   Mn3=0   Mn2=0   Vn2=0   Vn3=0   CheckDefl="Program Determined" _
        DeflType="Program Determined"   DLRat=0   SDLAndLLRat=0   LLRat=0   TotalRat=0   NetRat=0   DLAbs=0   SDLAndLLAbs=0   LLAbs=0   TotalAbs=0   NetAbs=0   SpecCamber=0   DCLimit=0
   Frame=19   DesignSect="Program Determined"   FrameType="Program Determined"   Fy=0   RLLF=0   AreaRatio=0   XLMajor=0   XLMinor=0   XLLTB=0   K1Major=0   K1Minor=0   K2Major=0   K2Minor=0   KLTB=0   CmMajor=0   CmMinor=0   Cb=0 _
        B1Major=0   B1Minor=0   B2Major=0   B2Minor=0   HSSReduceT="Program Determined"   HSSWelding="Program Determined"   Omega0=0   Ry=0   Pnc=0   Pnt=0   Mn3=0   Mn2=0   Vn2=0   Vn3=0   CheckDefl="Program Determined" _
        DeflType="Program Determined"   DLRat=0   SDLAndLLRat=0   LLRat=0   TotalRat=0   NetRat=0   DLAbs=0   SDLAndLLAbs=0   LLAbs=0   TotalAbs=0   NetAbs=0   SpecCamber=0   DCLimit=0
   Frame=20   DesignSect="Program Determined"   FrameType="Program Determined"   Fy=0   RLLF=0   AreaRatio=0   XLMajor=0   XLMinor=0   XLLTB=0   K1Major=0   K1Minor=0   K2Major=0   K2Minor=0   KLTB=0   CmMajor=0   CmMinor=0   Cb=0 _
        B1Major=0   B1Minor=0   B2Major=0   B2Minor=0   HSSReduceT="Program Determined"   HSSWelding="Program Determined"   Omega0=0   Ry=0   Pnc=0   Pnt=0   Mn3=0   Mn2=0   Vn2=0   Vn3=0   CheckDefl="Program Determined" _
        DeflType="Program Determined"   DLRat=0   SDLAndLLRat=0   LLRat=0   TotalRat=0   NetRat=0   DLAbs=0   SDLAndLLAbs=0   LLAbs=0   TotalAbs=0   NetAbs=0   SpecCamber=0   DCLimit=0
   Frame=21   DesignSect="Program Determined"   FrameType="Program Determined"   Fy=0   RLLF=0   AreaRatio=0   XLMajor=0   XLMinor=0   XLLTB=0   K1Major=0   K1Minor=0   K2Major=0   K2Minor=0   KLTB=0   CmMajor=0   CmMinor=0   Cb=0 _
        B1Major=0   B1Minor=0   B2Major=0   B2Minor=0   HSSReduceT="Program Determined"   HSSWelding="Program Determined"   Omega0=0   Ry=0   Pnc=0   Pnt=0   Mn3=0   Mn2=0   Vn2=0   Vn3=0   CheckDefl="Program Determined" _
        DeflType="Program Determined"   DLRat=0   SDLAndLLRat=0   LLRat=0   TotalRat=0   NetRat=0   DLAbs=0   SDLAndLLAbs=0   LLAbs=0   TotalAbs=0   NetAbs=0   SpecCamber=0   DCLimit=0
# ... 144 like lines cut
 
TABLE:  "PREFERENCES - ALUMINUM DESIGN - AA-ASD 2000"
   THDesign=Envelopes   FrameType="Moment Frame"   SRatioLimit=1   MaxIter=1   LatFact=1.33333333333333   UseLatFact=No   Bridge=No
 
TABLE:  "PREFERENCES - COLD FORMED DESIGN - AISI-ASD96"
   THDesign=Envelopes   FrameType="Braced Frame"   SRatioLimit=1   MaxIter=1   OmegaBS=1.67   OmegaBUS=1.67   OmegaBLTB=1.67   OmegaVS=1.67   OmegaVNS=1.5   OmegaT=1.67   OmegaC=1.8
 
TABLE:  "PREFERENCES - CONCRETE DESIGN - ACI 318-14"
   THDesign=Envelopes   NumCurves=24   NumPoints=11   MinEccen=Yes   PatLLF=0.75   UFLimit=0.95   SeisCat=D   Rho=1   Sds=0.5   PhiT=0.9   PhiCTied=0.65   PhiCSpiral=0.75   PhiV=0.75   PhiVSeismic=0.6   PhiVJoint=0.85
 
TABLE:  "PREFERENCES - DIMENSIONAL"
   MergeTol=0.00833333333333333   FineGrid=1   Nudge=1   SelectTol=3   SnapTol=12   SLineThick=2   PLineThick=4   MaxFont=8   MinFont=3   AutoZoom=10   ShrinkFact=70   TextFileLen=240
 
TABLE:  "PREFERENCES - STEEL DESIGN - AISC360-05-IBC2006"
   THDesign=Envelopes   FrameType=SMF   PatLLF=0.75   SRatioLimit=0.95   MaxIter=1   SDC=D   SeisCode=Yes   SeisLoad=Yes   ImpFactor=1   SystemRho=1   SystemSds=0.5   SystemR=8   SystemCd=5.5   Omega0=3   Provision=LRFD _
        AMethod="Direct Analysis"   SOMethod="General 2nd Order"   SRMethod="Tau-b Fixed"   NLCoeff=0.002   PhiB=0.9   PhiC=0.9   PhiTY=0.9   PhiTF=0.75   PhiV=0.9   PhiVRolledI=1   PhiVT=0.9   PlugWeld=Yes   HSSWelding=ERW   HSSReduceT=No _
        CheckDefl=No   DLRat=120   SDLAndLLRat=120   LLRat=360   TotalRat=240   NetRat=240
 
TABLE:  "PROGRAM CONTROL"
   ProgramName=SAP2000   Version=20.2.0   CurrUnits="lb, ft, F"   SteelCode=AISC360-05/IBC2006   ConcCode="ACI 318-14"   AlumCode="AA-ASD 2000"   ColdCode=AISI-ASD96   RegenHinge=Yes
 
TABLE:  "PROJECT INFORMATION"
   Item="Company Name"
   Item="Client Name"
   Item="Project Name"
   Item="Project Number"
   Item="Model Name"
   Item="Model Description"
   Item="Revision Number"
   Item="Frame Type"
   Item=Engineer
   Item=Checker
   Item=Supervisor
   Item="Issue Code"
   Item="Design Code"
 
TABLE:  "REBAR SIZES"
   RebarID=#2   Area=0.000347222222222222   Diameter=0.0208333333333333
   RebarID=#3   Area=0.000763888884749677   Diameter=0.03125
   RebarID=#4   Area=0.00138888890958495   Diameter=0.0416666666666667
   RebarID=#5   Area=0.00215277779433462   Diameter=0.0520833333333333
   RebarID=#6   Area=0.00305555553899871   Diameter=0.0625
   RebarID=#7   Area=0.00416666683223512   Diameter=0.0729166666666667
   RebarID=#8   Area=0.00548611126012272   Diameter=0.0833333333333333
   RebarID=#9   Area=0.00694444444444444   Diameter=0.0940000017484029
   RebarID=#10   Area=0.00881944431198968   Diameter=0.105833331743876
   RebarID=#11   Area=0.010833332935969   Diameter=0.11749999721845
   RebarID=#14   Area=0.015625   Diameter=0.141083329916
   RebarID=#18   Area=0.0277777777777778   Diameter=0.188083330790202
   RebarID=10M   Area=0.00107639107025332   Diameter=0.0370734930038452
   RebarID=15M   Area=0.00215278214050664   Diameter=0.0524934381246567
   RebarID=20M   Area=0.00322917331424024   Diameter=0.063976377248764
   RebarID=25M   Area=0.00538195545474688   Diameter=0.0826771706342697
   RebarID=30M   Area=0.00753473738829295   Diameter=0.0980971157550812
   RebarID=35M   Area=0.0107639109094938   Diameter=0.117125988006592
   RebarID=45M   Area=0.0161458667781618   Diameter=0.143372704585393
   RebarID=55M   Area=0.0269097768598133   Diameter=0.185039381186167
   RebarID=6d   Area=0.000304618669259879   Diameter=0.019685039917628
   RebarID=8d   Area=0.000541424689193567   Diameter=0.0262467190623283
   RebarID=10d   Area=0.000844966982387834   Diameter=0.0328083982070287
   RebarID=12d   Area=0.00121632197664844   Diameter=0.0393700798352559
   RebarID=14d   Area=0.00165764232062631   Diameter=0.0459317614634832
   RebarID=16d   Area=0.00216354615986347   Diameter=0.0524934381246567
   RebarID=20d   Area=0.00337986792955134   Diameter=0.0656167964140574
   RebarID=25d   Area=0.00528508010837767   Diameter=0.0820209980010986
   RebarID=26d   Area=0.00571563674343957   Diameter=0.0853018363316854
   RebarID=28d   Area=0.00663056928250525   Diameter=0.0918635229269663
   RebarID=N12   Area=0.00121632197664844   Diameter=0.0393700798352559
   RebarID=N16   Area=0.00216354615986347   Diameter=0.0524934381246567
   RebarID=N20   Area=0.00337986792955134   Diameter=0.0656167964140574
   RebarID=N24   Area=0.00486528790659375   Diameter=0.0787401596705119
   RebarID=N28   Area=0.00663056928250525   Diameter=0.0918635229269663
   RebarID=N32   Area=0.00865418463945389   Diameter=0.104986876249313
   RebarID=N36   Area=0.0109791888131036   Diameter=0.118110239505768
 
TABLE:  "SOLID PROPERTY DEFINITIONS"
   SolidProp=Solid1   Material=4000Psi   MatAngleA=0   MatAngleB=0   MatAngleC=0   InComp=Yes   Color=Gray8Dark
 
END TABLE DATA
