File C:\Users\lenovo\OneDrive - IIT Kanpur\Desktop\descon\TRUSS 2.$2k was saved on m/d/yy at h:mm:ss
 
TABLE:  "ACTIVE DEGREES OF FREEDOM"
   UX=Yes   UY=Yes   UZ=Yes   RX=Yes   RY=Yes   RZ=Yes
 
TABLE:  "ANALYSIS OPTIONS"
   Solver=Advanced   SolverProc=Auto   Force32Bit=No   StiffCase=None   GeomMod=None   HingeOpt="In Elements"
 
TABLE:  "AUTO WAVE 3 - WAVE CHARACTERISTICS - GENERAL"
   WaveChar=Default   WaveType="From Theory"   KinFactor=1   SWaterDepth=45   WaveHeight=18   WavePeriod=12   WaveTheory=Linear
 
TABLE:  "CASE - MODAL 1 - GENERAL"
   Case=MODAL   ModeType=Eigen   MaxNumModes=12   MinNumModes=1   EigenShift=0   EigenCutoff=0   EigenTol=1E-09   AutoShift=Yes
 
TABLE:  "CASE - STATIC 1 - LOAD ASSIGNMENTS"
   Case=DEAD   LoadType="Load pattern"   LoadName=DEAD   LoadSF=1
 
TABLE:  "CONNECTIVITY - FRAME"
   Frame=1   JointI=1   JointJ=2   IsCurved=No   GUID=fe41f67d-6e5e-4578-afe1-2d9a0940f49b
   Frame=2   JointI=2   JointJ=3   IsCurved=No   GUID=6e3dd8fe-3c6e-4e72-b5f6-728438051b95
   Frame=3   JointI=3   JointJ=4   IsCurved=No   GUID=0bc47bbc-95a3-4237-8c61-b610fca0db69
   Frame=4   JointI=4   JointJ=1   IsCurved=No   GUID=fe643bc4-77c7-408e-8666-f3596e0bd9a9
   Frame=5   JointI=1   JointJ=5   IsCurved=No   GUID=7de7937e-e5ab-4da3-b488-019472223f52
   Frame=6   JointI=5   JointJ=4   IsCurved=No   GUID=616bfa61-0394-4a05-9ccf-4b95b2798c93
   Frame=7   JointI=6   JointJ=5   IsCurved=No   GUID=4ef3c2a1-da5d-4ddf-b689-ca9e788851ad
 
TABLE:  "COORDINATE SYSTEMS"
   Name=GLOBAL   Type=Cartesian   X=0   Y=0   Z=0   AboutZ=0   AboutY=0   AboutX=0
 
TABLE:  "DATABASE DOCUMENTATION"
 
TABLE:  "DATABASE FORMAT TYPES"
   UnitsCurr=Yes   OverrideE=No
 
TABLE:  "FRAME AUTO MESH ASSIGNMENTS"
   Frame=1   AutoMesh=Yes   AtJoints=Yes   AtFrames=No   NumSegments=0   MaxLength=0   MaxDegrees=0
   Frame=2   AutoMesh=Yes   AtJoints=Yes   AtFrames=No   NumSegments=0   MaxLength=0   MaxDegrees=0
   Frame=3   AutoMesh=Yes   AtJoints=Yes   AtFrames=No   NumSegments=0   MaxLength=0   MaxDegrees=0
   Frame=4   AutoMesh=Yes   AtJoints=Yes   AtFrames=No   NumSegments=0   MaxLength=0   MaxDegrees=0
   Frame=5   AutoMesh=Yes   AtJoints=Yes   AtFrames=No   NumSegments=0   MaxLength=0   MaxDegrees=0
   Frame=6   AutoMesh=Yes   AtJoints=Yes   AtFrames=No   NumSegments=0   MaxLength=0   MaxDegrees=0
   Frame=7   AutoMesh=Yes   AtJoints=Yes   AtFrames=No   NumSegments=0   MaxLength=0   MaxDegrees=0
 
TABLE:  "FRAME DESIGN PROCEDURES"
   Frame=1   DesignProc="From Material"
   Frame=2   DesignProc="From Material"
   Frame=3   DesignProc="From Material"
   Frame=4   DesignProc="From Material"
   Frame=5   DesignProc="From Material"
   Frame=6   DesignProc="From Material"
   Frame=7   DesignProc="From Material"
 
TABLE:  "FRAME LOADS - POINT"
   Frame=2   LoadPat=DEAD   CoordSys=GLOBAL   Type=Force   Dir=Gravity   DistType=RelDist   RelDist=0   AbsDist=0   Force=10   GUID=77137d60-ad44-448a-a00d-ed53072f8627
   Frame=2   LoadPat=DEAD   CoordSys=GLOBAL   Type=Force   Dir=Gravity   DistType=RelDist   RelDist=0.5   AbsDist=3   Force=15   GUID=259433ea-2d22-4335-80f0-662ce57f0fad
   Frame=2   LoadPat=DEAD   CoordSys=GLOBAL   Type=Force   Dir=Gravity   DistType=RelDist   RelDist=1   AbsDist=6   Force=20   GUID=342b54fb-0d91-485e-9235-b40bdde96c22
 
TABLE:  "FRAME LOAD TRANSFER OPTIONS"
   Frame=1   Transfer=Yes
   Frame=2   Transfer=Yes
   Frame=3   Transfer=Yes
   Frame=4   Transfer=Yes
   Frame=5   Transfer=Yes
   Frame=6   Transfer=Yes
   Frame=7   Transfer=Yes
 
TABLE:  "FRAME OUTPUT STATION ASSIGNMENTS"
   Frame=1   StationType=MinNumSta   MinNumSta=3   AddAtElmInt=Yes   AddAtPtLoad=Yes
   Frame=2   StationType=MaxStaSpcg   MaxStaSpcg=0.5   AddAtElmInt=Yes   AddAtPtLoad=Yes
   Frame=3   StationType=MinNumSta   MinNumSta=3   AddAtElmInt=Yes   AddAtPtLoad=Yes
   Frame=4   StationType=MaxStaSpcg   MaxStaSpcg=0.5   AddAtElmInt=Yes   AddAtPtLoad=Yes
   Frame=5   StationType=MinNumSta   MinNumSta=3   AddAtElmInt=Yes   AddAtPtLoad=Yes
   Frame=6   StationType=MinNumSta   MinNumSta=3   AddAtElmInt=Yes   AddAtPtLoad=Yes
   Frame=7   StationType=MinNumSta   MinNumSta=3   AddAtElmInt=Yes   AddAtPtLoad=Yes
 
TABLE:  "FRAME SECTION ASSIGNMENTS"
   Frame=1   AutoSelect=TRUSS   AnalSect=W8X28   MatProp=Default
   Frame=2   AutoSelect=TRUSS   AnalSect=W8X28   MatProp=Default
   Frame=3   AutoSelect=TRUSS   AnalSect=W8X28   MatProp=Default
   Frame=4   AutoSelect=TRUSS   AnalSect=W8X28   MatProp=Default
   Frame=5   AutoSelect=TRUSS   AnalSect=W8X28   MatProp=Default
   Frame=6   AutoSelect=TRUSS   AnalSect=W8X28   MatProp=Default
   Frame=7   AutoSelect=TRUSS   AnalSect=W8X28   MatProp=Default
 
TABLE:  "FRAME SECTION PROPERTIES 01 - GENERAL"
   SectionName=TRUSS   Shape="Auto Select"   AutoType=Steel   Color=Cyan   Notes="Imported 01-01-2018 00:02:37 from SECTIONS8.PRO"
   SectionName=W8X10   Material=A500GrB46   Shape="I/Wide Flange"   t3=0.200405996608734   t2=0.1000760014534   tf=0.00520699995458126   tw=0.00431800004541874   t2b=0.1000760014534   tfb=0.00520699995458126   Area=0.0019096736246109 _
        TorsConst=1.77314580706319E-08   I33=1.28199275909206E-05   I22=8.6992364377857E-07   I23=0   AS2=0.000865353114891052   AS3=0.000868492850570679   S33=0.000127939560770228   S22=1.73852598254268E-05   Z33=0.000145353255804649 _
        Z22=2.72025256930227E-05   R33=0.0819338214569893   R22=0.0213432716726362   Color=Red   FromFile=Yes   AMod=1   A2Mod=1   A3Mod=1   JMod=1   I2Mod=1   I3Mod=1   MMod=1   WMod=1   SectInFile=W8X10   FileName=e:\sap2000\sections8.pro   Notes="Imported 01-01-2018 00:02:37 from SECTIONS8.PRO"
   SectionName=W8X13   Material=A500GrB46   Shape="I/Wide Flange"   t3=0.202945994186401   t2=0.1016   tf=0.00647699987888336   tw=0.00584200010597706   t2b=0.1016   tfb=0.00647699987888336   Area=0.00247741434462547 _
        TorsConst=3.62537568323532E-08   I33=1.64827638186412E-05   I22=1.13631179982698E-06   I23=0   AS2=0.00118561053802967   AS3=0.00109677203076363   S33=0.000162434975715778   S22=2.23683425162792E-05   Z33=0.000186812523348831 _
        Z22=3.52321891627922E-05   R33=0.0815672262146221   R22=0.0214165461957941   Color=Magenta   FromFile=Yes   AMod=1   A2Mod=1   A3Mod=1   JMod=1   I2Mod=1   I3Mod=1   MMod=1   WMod=1   SectInFile=W8X13 _
        FileName=e:\sap2000\sections8.pro   Notes="Imported 01-01-2018 00:02:37 from SECTIONS8.PRO"
   SectionName=W8X15   Material=A500GrB46   Shape="I/Wide Flange"   t3=0.205993991279602   t2=0.101854005813599   tf=0.00800099993944168   tw=0.00622300012111664   t2b=0.101854005813599   tfb=0.00800099993944168   Area=0.00286451043691635 _
        TorsConst=5.7023703024742E-08   I33=1.99791084288E-05   I22=1.41934919702143E-06   I23=0   AS2=0.00128190068771839   AS3=0.00135822301370621   S33=0.000193977584537228   S22=2.7870267559608E-05   Z33=0.000222864076651169 _
        Z22=4.37534621302338E-05   R33=0.0835146850129741   R22=0.0222597059861662   Color=Yellow   FromFile=Yes   AMod=1   A2Mod=1   A3Mod=1   JMod=1   I2Mod=1   I3Mod=1   MMod=1   WMod=1   SectInFile=W8X15 _
        FileName=e:\sap2000\sections8.pro   Notes="Imported 01-01-2018 00:02:37 from SECTIONS8.PRO"
   SectionName=W8X18   Material=A500GrB46   Shape="I/Wide Flange"   t3=0.206756008720398   t2=0.13335   tf=0.00838200033307075   tw=0.00584200010597706   t2b=0.13335   tfb=0.00838200033307075   Area=0.00339354174766541 _
        TorsConst=7.1591807634514E-08   I33=2.57647258797587E-05   I22=3.31736437470317E-06   I23=0   AS2=0.00120786855987549   AS3=0.00186289953076363   S33=0.000249228315435332   S22=4.97542463397551E-05   Z33=0.000278580088 _
        Z22=7.63637157395325E-05   R33=0.0871337017810259   R22=0.0312658320074955   Color=Gray8Dark   FromFile=Yes   AMod=1   A2Mod=1   A3Mod=1   JMod=1   I2Mod=1   I3Mod=1   MMod=1   WMod=1   SectInFile=W8X18 _
        FileName=e:\sap2000\sections8.pro   Notes="Imported 01-01-2018 00:02:37 from SECTIONS8.PRO"
   SectionName=W8X21   Material=A500GrB46   Shape="I/Wide Flange"   t3=0.210311993217468   t2=0.133857999515533   tf=0.0101600001513958   tw=0.00635   t2b=0.133857999515533   tfb=0.0101600001513958   Area=0.0039741855015564 _
        TorsConst=1.17377264202421E-07   I33=3.13422276179175E-05   I22=4.06658121864763E-06   I23=0   AS2=0.00133548115693092   AS3=0.0022666621251297   S33=0.000298054591546843   S22=6.07596293589569E-05   Z33=0.000334296099348831 _
        Z22=9.32423950976753E-05   R33=0.0888057042783747   R22=0.0319882629943213   Color=Blue   FromFile=Yes   AMod=1   A2Mod=1   A3Mod=1   JMod=1   I2Mod=1   I3Mod=1   MMod=1   WMod=1   SectInFile=W8X21 _
        FileName=e:\sap2000\sections8.pro   Notes="Imported 01-01-2018 00:02:37 from SECTIONS8.PRO"
   SectionName=W8X24   Material=A500GrB46   Shape="I/Wide Flange"   t3=0.201421995639801   t2=0.1651   tf=0.0101600001513958   tw=0.00622300012111664   t2b=0.1651   tfb=0.0101600001513958   Area=0.0045677327507782 _
        TorsConst=1.44016067402599E-07   I33=3.44223376268825E-05   I22=7.61703477092062E-06   I23=0   AS2=0.0012534491019392   AS3=0.00279569343587875   S33=0.000341793233827742   S22=9.2271771906973E-05   Z33=0.000378541184651169 _
        Z22=0.000140437133479065   R33=0.0868100161223547   R22=0.0408359464775658   Color=Green   FromFile=Yes   AMod=1   A2Mod=1   A3Mod=1   JMod=1   I2Mod=1   I3Mod=1   MMod=1   WMod=1   SectInFile=W8X24 _
        FileName=e:\sap2000\sections8.pro   Notes="Imported 01-01-2018 00:02:37 from SECTIONS8.PRO"
   SectionName=W8X28   Material=A500GrB46   Shape="I/Wide Flange"   t3=0.204724010658264   t2=0.166115999031067   tf=0.0118110000908375   tw=0.00723899990916252   t2b=0.166115999031067   tfb=0.0118110000908375   Area=0.00531611825233459 _
        TorsConst=2.23516275745675E-07   I33=4.07906797088E-05   I22=9.03222225307938E-06   I23=0   AS2=0.00148199707931519   AS3=0.00326999348707199   S33=0.000398494339551504   S22=0.000108745964335322   Z33=0.000445728153302338 _
        Z22=0.000165509352651169   R33=0.0875957740453761   R22=0.0412192410784605   Color=Cyan   FromFile=Yes   AMod=1   A2Mod=1   A3Mod=1   JMod=1   I2Mod=1   I3Mod=1   MMod=1   WMod=1   SectInFile=W8X28 _
        FileName=e:\sap2000\sections8.pro   Notes="Imported 01-01-2018 00:02:37 from SECTIONS8.PRO"
   SectionName=W8X31   Material=A500GrB46   Shape="I/Wide Flange"   t3=0.2032   t2=0.2032   tf=0.0110490000605583   tw=0.00723899990916252   t2b=0.2032   tfb=0.0110490000605583   Area=0.0058838591261673   TorsConst=2.23100049678889E-07 _
        I33=4.5785456816E-05   I22=1.54421852546412E-05   I23=0   AS2=0.00147096478154182   AS3=0.0037419281230545   S33=0.00045064426   S22=0.000151990012348831   Z33=0.000498166739348831   Z22=0.000231057608651169   R33=0.088213010295334 _
        R22=0.0512298690842958   Color=Red   FromFile=Yes   AMod=1   A2Mod=1   A3Mod=1   JMod=1   I2Mod=1   I3Mod=1   MMod=1   WMod=1   SectInFile=W8X31   FileName=e:\sap2000\sections8.pro   Notes="Imported 01-01-2018 00:02:37 from SECTIONS8.PRO"
   SectionName=W8X35   Material=A500GrB46   Shape="I/Wide Flange"   t3=0.206247997093201   t2=0.203708011627197   tf=0.0125730001211166   tw=0.00787400006055832   t2b=0.203708011627197   tfb=0.0125730001211166   Area=0.0066451481230545 _
        TorsConst=3.2008196370623E-07   I33=5.28613910512E-05   I22=1.77314580954412E-05   I23=0   AS2=0.00162399674757004   AS3=0.00426870107601166   S33=0.000512600285056952   S22=0.000174086997892761   Z33=0.000568631133302338 _
        Z22=0.000263831736651169   R33=0.0891901636369452   R22=0.0516558951669323   Color=Magenta   FromFile=Yes   AMod=1   A2Mod=1   A3Mod=1   JMod=1   I2Mod=1   I3Mod=1   MMod=1   WMod=1   SectInFile=W8X35 _
        FileName=e:\sap2000\sections8.pro   Notes="Imported 01-01-2018 00:02:37 from SECTIONS8.PRO"
   SectionName=W8X40   Material=A500GrB46   Shape="I/Wide Flange"   t3=0.20955   t2=0.204977992248535   tf=0.0142240000605583   tw=0.00914400036334991   t2b=0.204977992248535   tfb=0.0142240000605583   Area=0.0075483718769455 _
        TorsConst=4.66179198656746E-07   I33=6.07697881376E-05   I22=2.04369623618412E-05   I23=0   AS2=0.00191612521845818   AS3=0.00485934516183853   S33=0.000580002750060606   S22=0.000199406405903923   Z33=0.000652205134697662 _
        Z22=0.000303160684   R33=0.0897257747871719   R22=0.0520333189868179   Color=Yellow   FromFile=Yes   AMod=1   A2Mod=1   A3Mod=1   JMod=1   I2Mod=1   I3Mod=1   MMod=1   WMod=1   SectInFile=W8X40   FileName=e:\sap2000\sections8.pro   Notes="Imported 01-01-2018 00:02:37 from SECTIONS8.PRO"
   SectionName=W8X48   Material=A500GrB46   Shape="I/Wide Flange"   t3=0.2159   t2=0.205993991279602   tf=0.0173990000605583   tw=0.0101600001513958   t2b=0.205993991279602   tfb=0.0173990000605583   Area=0.00909675624610901 _
        TorsConst=8.15813610053969E-07   I33=7.65865823104E-05   I22=2.53484944541588E-05   I23=0   AS2=0.00219354406152725   AS3=0.00597348279808044   S33=0.000709463476705882   S22=0.000246109066547989   Z33=0.000802966136 _
        Z22=0.000375263759348831   R33=0.0917557027768989   R22=0.0527877080586852   Color=Gray8Dark   FromFile=Yes   AMod=1   A2Mod=1   A3Mod=1   JMod=1   I2Mod=1   I3Mod=1   MMod=1   WMod=1   SectInFile=W8X48 _
        FileName=e:\sap2000\sections8.pro   Notes="Imported 01-01-2018 00:02:37 from SECTIONS8.PRO"
   SectionName=W8X58   Material=A500GrB46   Shape="I/Wide Flange"   t3=0.22225   t2=0.208788006782532   tf=0.0205740000605583   tw=0.0129539997577667   t2b=0.208788006782532   tfb=0.0205740000605583   Area=0.011032236246109 _
        TorsConst=1.38605061549206E-06   I33=9.49007650368E-05   I22=3.12589794274412E-05   I23=0   AS2=0.00287902656152725   AS3=0.00715934059875488   S33=0.000854000135314286   S22=0.000299432710806994   Z33=0.000979946414697662 _
        Z22=0.000457199079348831   R33=0.0927476853696925   R22=0.0532298963696744   Color=Blue   FromFile=Yes   AMod=1   A2Mod=1   A3Mod=1   JMod=1   I2Mod=1   I3Mod=1   MMod=1   WMod=1   SectInFile=W8X58 _
        FileName=e:\sap2000\sections8.pro   Notes="Imported 01-01-2018 00:02:37 from SECTIONS8.PRO"
   SectionName=W8X67   Material=A500GrB46   Shape="I/Wide Flange"   t3=0.2286   t2=0.210311993217468   tf=0.0237490000605583   tw=0.014477999818325   t2b=0.210311993217468   tfb=0.0237490000605583   Area=0.012709652492218 _
        TorsConst=2.10196877866984E-06   I33=0.0001132149477632   I22=3.68781036730412E-05   I23=0   AS2=0.0033096708738327   AS3=0.00832449940124512   S33=0.000990506979555556   S22=0.000350699007782293   Z33=0.00114873316139532 _
        Z22=0.000535857005302338   R33=0.0943811027082275   R22=0.0538663380575246   Color=Cyan   FromFile=Yes   AMod=1   A2Mod=1   A3Mod=1   JMod=1   I2Mod=1   I3Mod=1   MMod=1   WMod=1   SectInFile=W8X67 _
        FileName=e:\sap2000\sections8.pro   Notes="Imported 01-01-2018 00:02:37 from SECTIONS8.PRO"
 
TABLE:  "FRAME SECTION PROPERTIES 04 - AUTO SELECT"
   ListName=TRUSS   SectionName=W8X10
   ListName=TRUSS   SectionName=W8X13
   ListName=TRUSS   SectionName=W8X15
   ListName=TRUSS   SectionName=W8X18
   ListName=TRUSS   SectionName=W8X21
   ListName=TRUSS   SectionName=W8X24
   ListName=TRUSS   SectionName=W8X28
   ListName=TRUSS   SectionName=W8X31
   ListName=TRUSS   SectionName=W8X35
   ListName=TRUSS   SectionName=W8X40
   ListName=TRUSS   SectionName=W8X48
   ListName=TRUSS   SectionName=W8X58
   ListName=TRUSS   SectionName=W8X67
 
TABLE:  "FRAME SECTION PROPERTIES 13 - TIME DEPENDENT"
   SectionName=W8X10   TypeSize=Auto   AutoSFSize=0
   SectionName=W8X13   TypeSize=Auto   AutoSFSize=0
   SectionName=W8X15   TypeSize=Auto   AutoSFSize=0
   SectionName=W8X18   TypeSize=Auto   AutoSFSize=0
   SectionName=W8X21   TypeSize=Auto   AutoSFSize=0
   SectionName=W8X24   TypeSize=Auto   AutoSFSize=0
   SectionName=W8X28   TypeSize=Auto   AutoSFSize=0
   SectionName=W8X31   TypeSize=Auto   AutoSFSize=0
   SectionName=W8X35   TypeSize=Auto   AutoSFSize=0
   SectionName=W8X40   TypeSize=Auto   AutoSFSize=0
   SectionName=W8X48   TypeSize=Auto   AutoSFSize=0
   SectionName=W8X58   TypeSize=Auto   AutoSFSize=0
   SectionName=W8X67   TypeSize=Auto   AutoSFSize=0
 
TABLE:  "FUNCTION - PLOT FUNCTIONS"
   PlotFunc="Input Energy"   Type=Energy   Component=Input   Mode=All
 
TABLE:  "FUNCTION - POWER SPECTRAL DENSITY - USER"
   Name=UNIFPSD   Frequency=0   Value=1
   Name=UNIFPSD   Frequency=1   Value=1
 
TABLE:  "FUNCTION - RESPONSE SPECTRUM - USER"
   Name=UNIFRS   Period=0   Accel=1   FuncDamp=0.05
   Name=UNIFRS   Period=1   Accel=1
 
TABLE:  "FUNCTION - STEADY STATE - USER"
   Name=UNIFSS   Frequency=0   Value=1
   Name=UNIFSS   Frequency=1   Value=1
 
TABLE:  "FUNCTION - TIME HISTORY - USER"
   Name=RAMPTH   Time=0   Value=0
   Name=RAMPTH   Time=1   Value=1
   Name=RAMPTH   Time=4   Value=1
   Name=UNIFTH   Time=0   Value=1
   Name=UNIFTH   Time=1   Value=1
 
TABLE:  "GRID LINES"
   CoordSys=GLOBAL   AxisDir=X   GridID=A   XRYZCoord=0   LineType=Primary   LineColor=Gray8Dark   Visible=Yes   BubbleLoc=End   AllVisible=Yes   BubbleSize=0.5625
   CoordSys=GLOBAL   AxisDir=X   GridID=B   XRYZCoord=3   LineType=Primary   LineColor=Gray8Dark   Visible=Yes   BubbleLoc=End
   CoordSys=GLOBAL   AxisDir=X   GridID=C   XRYZCoord=6   LineType=Primary   LineColor=Gray8Dark   Visible=Yes   BubbleLoc=End
   CoordSys=GLOBAL   AxisDir=Y   GridID=1   XRYZCoord=0   LineType=Primary   LineColor=Gray8Dark   Visible=Yes   BubbleLoc=Start
   CoordSys=GLOBAL   AxisDir=Z   GridID=Z1   XRYZCoord=0   LineType=Primary   LineColor=Gray8Dark   Visible=Yes   BubbleLoc=End
   CoordSys=GLOBAL   AxisDir=Z   GridID=Z2   XRYZCoord=3   LineType=Primary   LineColor=Gray8Dark   Visible=Yes   BubbleLoc=End
 
TABLE:  "GROUPS 1 - DEFINITIONS"
   GroupName=ALL   Selection=Yes   SectionCut=Yes   Steel=Yes   Concrete=Yes   Aluminum=Yes   ColdFormed=Yes   Stage=Yes   Bridge=Yes   AutoSeismic=No   AutoWind=No   SelDesSteel=No   SelDesAlum=No   SelDesCold=No   MassWeight=Yes   Color=Red
 
TABLE:  "JOINT COORDINATES"
   Joint=1   CoordSys=GLOBAL   CoordType=Cartesian   XorR=0   Y=0   Z=0   SpecialJt=No   GUID=bda80539-6ec3-4a7b-802b-87517ffb8cda
   Joint=2   CoordSys=GLOBAL   CoordType=Cartesian   XorR=0   Y=0   Z=3   SpecialJt=No   GUID=90069b1c-712f-4c08-ae2a-1a6edcf770f8
   Joint=3   CoordSys=GLOBAL   CoordType=Cartesian   XorR=6   Y=0   Z=3   SpecialJt=No   GUID=fcd87011-e15f-4336-ae0e-ba8da1ac425f
   Joint=4   CoordSys=GLOBAL   CoordType=Cartesian   XorR=6   Y=0   Z=0   SpecialJt=No   GUID=d3603608-30bf-43cb-b921-d191ffc27282
   Joint=5   CoordSys=GLOBAL   CoordType=Cartesian   XorR=3   Y=0   Z=3   SpecialJt=No   GUID=c1a5e76c-ca2c-43b9-8118-a44167a28ac1
   Joint=6   CoordSys=GLOBAL   CoordType=Cartesian   XorR=3   Y=0   Z=0   SpecialJt=No   GUID=ada2b0cd-2016-4baa-a7bf-4850d76fc0fa
 
TABLE:  "JOINT PATTERN DEFINITIONS"
   Pattern=Default
 
TABLE:  "JOINT RESTRAINT ASSIGNMENTS"
   Joint=1   U1=Yes   U2=Yes   U3=Yes   R1=No   R2=No   R3=No
   Joint=4   U1=No   U2=No   U3=Yes   R1=No   R2=No   R3=No
 
TABLE:  "LOAD CASE DEFINITIONS"
   Case=DEAD   Type=LinStatic   InitialCond=Zero   DesTypeOpt="Prog Det"   DesignType=Dead   DesActOpt="Prog Det"   DesignAct=Non-Composite   AutoType=None   RunCase=Yes   GUID=c59a7bce-57d0-48fa-9a8c-dd9c89ee3bde
   Case=MODAL   Type=LinModal   InitialCond=Zero   DesTypeOpt="Prog Det"   DesignType=Other   DesActOpt="Prog Det"   DesignAct=Other   AutoType=None   RunCase=No   GUID=d9acd04c-d8f3-4532-865d-510d5d49264d
 
TABLE:  "LOAD PATTERN DEFINITIONS"
   LoadPat=DEAD   DesignType=Dead   SelfWtMult=1   GUID=9220a5f0-dbdb-4afd-a4cc-d99147f62cc9
 
TABLE:  "MASS SOURCE"
   MassSource=MSSSRC1   Elements=Yes   Masses=Yes   Loads=No   IsDefault=Yes
 
TABLE:  "MATERIAL PROPERTIES 01 - GENERAL"
   Material=4000Psi   Type=Concrete   SymType=Isotropic   TempDepend=No   Color=Green   Notes="Customary f'c 4000 psi 01-01-2018 00:00:30"
   Material=A416Gr270   Type=Tendon   Grade="Grade 270"   SymType=Uniaxial   TempDepend=No   Color=Yellow   Notes="ASTM A416 Grade 270 01-11-2018 00:19:30"
   Material=A500GrB46   Type=Steel   SymType=Isotropic   TempDepend=No   Color=Magenta   Notes="United States ASTM A500 Grade B, Fy 46 (HSS Rect.) added 01-01-2018 00:01:55"
   Material=A992Fy50   Type=Steel   SymType=Isotropic   TempDepend=No   Color=Blue   Notes="ASTM A992 Grade 50 01-01-2018 00:00:30"
 
TABLE:  "MATERIAL PROPERTIES 02 - BASIC MECHANICAL PROPERTIES"
   Material=4000Psi   UnitWeight=23.5631216161854   UnitMass=2.40276960558926   E1=24855578.0600518   G12=10356490.8583549   U12=0.2   A1=9.89999952793124E-06
   Material=A416Gr270   UnitWeight=76.9728639422648   UnitMass=7.84904737995992   E1=196500599.8512   A1=1.16999994421006E-05
   Material=A500GrB46   UnitWeight=76.9728639422648   UnitMass=7.84904737995992   E1=199947978.795958   G12=76903068.767676   U12=0.3   A1=1.16999994421006E-05
   Material=A992Fy50   UnitWeight=76.9728639422648   UnitMass=7.84904737995992   E1=199947978.795958   G12=76903068.767676   U12=0.3   A1=1.16999994421006E-05
 
TABLE:  "MATERIAL PROPERTIES 03A - STEEL DATA"
   Material=A500GrB46   Fy=317158.862917726   Fu=399895.957591915   EffFy=348874.749209498   EffFu=439885.553351107   SSCurveOpt=Simple   SSHysType=Kinematic   SHard=0.018   SMax=0.12   SRup=0.18   FinalSlope=-0.1
   Material=A992Fy50   Fy=344737.894475789   Fu=448159.262818526   EffFy=379211.683923368   EffFu=492975.189100378   SSCurveOpt=Simple   SSHysType=Kinematic   SHard=0.015   SMax=0.11   SRup=0.17   FinalSlope=-0.1
 
TABLE:  "MATERIAL PROPERTIES 03B - CONCRETE DATA"
   Material=4000Psi   Fc=27579.0315580631   eFc=27579.0315580631   LtWtConc=No   SSCurveOpt=Mander   SSHysType=Takeda   SFc=0.00221914   SCap=0.005   FinalSlope=-0.1   FAngle=0   DAngle=0
 
TABLE:  "MATERIAL PROPERTIES 03F - TENDON DATA"
   Material=A416Gr270   Fy=1689905.15872032   Fu=1861584.63016926   SSCurveOpt="270 ksi"   SSHysType=Kinematic   FinalSlope=-0.1
 
TABLE:  "MATERIAL PROPERTIES 06 - DAMPING PARAMETERS"
   Material=4000Psi   ModalRatio=0   VisMass=0   VisStiff=0   HysMass=0   HysStiff=0
   Material=A416Gr270   ModalRatio=0   VisMass=0   VisStiff=0   HysMass=0   HysStiff=0
   Material=A500GrB46   ModalRatio=0   VisMass=0   VisStiff=0   HysMass=0   HysStiff=0
   Material=A992Fy50   ModalRatio=0   VisMass=0   VisStiff=0   HysMass=0   HysStiff=0
 
TABLE:  "OPTIONS - COLORS - DISPLAY"
   DeviceType=Screen   Points=Blue   LinesFrame=Blue   LinesFrmDL=Blue   LinesCable=Green   LinesTendon=Green   SpringLinks=Green   Restraints=Green   Releases=Green   Axes=Cyan   Text=Black   ShadowLines=Gray8Dark   GuideLines=Gray8Dark _
        Highlight=Red   Selection=10504778   AreaFillBot=Red   AreaFillTop=16744703   AreaFillSd=Red   AreaEdge=DarkRed   SolidF1=Red   SolidF2=Blue   SolidF3=Green   SolidF4=Yellow   SolidF5=White   SolidF6=Cyan   SolidEdge=DarkRed _
        Floor=Gray4   Background=White   BGLowLeft=White   BGLowRight=White   BGUpRight=White   Darkness=0.5
   DeviceType=Printer   Points=Gray8Dark   LinesFrame=Black   LinesFrmDL=Gray4   LinesCable=Black   LinesTendon=Black   SpringLinks=Gray8Dark   Restraints=Gray8Dark   Releases=Gray4   Axes=Black   Text=Black   ShadowLines=Gray4 _
        GuideLines=Gray4   Highlight=Black   Selection=Black   AreaFillBot=Gray4   AreaFillTop=Gray8Dark   AreaFillSd=Gray4   AreaEdge=Black   SolidF1=Gray1Light   SolidF2=Gray2   SolidF3=Gray3   SolidF4=Gray4   SolidF5=Gray5 _
        SolidF6=Gray6   SolidEdge=Black   Floor=Gray4   Background=White   BGLowLeft=White   BGLowRight=White   BGUpRight=White   Darkness=0.5
   DeviceType="Color Printer"   Points=Blue   LinesFrame=Blue   LinesFrmDL=Blue   LinesCable=Green   LinesTendon=Green   SpringLinks=Green   Restraints=Green   Releases=Green   Axes=Cyan   Text=Black   ShadowLines=Gray8Dark _
        GuideLines=Gray8Dark   Highlight=Red   Selection=10504778   AreaFillBot=Red   AreaFillTop=16744703   AreaFillSd=Red   AreaEdge=DarkRed   SolidF1=Red   SolidF2=Blue   SolidF3=Green   SolidF4=Yellow   SolidF5=White   SolidF6=Cyan _
        SolidEdge=DarkRed   Floor=Gray4   Background=White   BGLowLeft=White   BGLowRight=White   BGUpRight=White   Darkness=0.5
 
TABLE:  "OPTIONS - COLORS - OUTPUT"
   DeviceType=Screen   Contour1=13107400   Contour2=6553828   Contour3=Red   Contour4=16639   Contour5=Orange   Contour6=43775   Contour7=54527   Contour8=Yellow   Contour9=65408   Contour10=Green   Contour11=8453888   Contour12=Cyan _
        Contour13=16755200   Contour14=16733440   Contour15=Blue   Transpare=0.5   Ratio1=Cyan   Ratio2=Green   Ratio3=Yellow   Ratio4=Orange   Ratio5=Red   RatioNotD=Gray4   RatioNotC=Red   RatioVal1=0.5   RatioVal2=0.7   RatioVal3=0.9 _
        RatioVal4=1   DFillPos=Blue   DFillNeg=Red   DFillRPos=Green   DFillRNeg=Green
   DeviceType=Printer   Contour1=Black   Contour2=3158064   Contour3=4210752   Contour4=5263440   Contour5=6316128   Contour6=7368816   Contour7=Gray8Dark   Contour8=Gray7   Contour9=Gray6   Contour10=Gray5   Contour11=Gray4 _
        Contour12=Gray3   Contour13=Gray2   Contour14=Gray1Light   Contour15=White   Transpare=0   Ratio1=Gray2   Ratio2=Gray4   Ratio3=Gray8Dark   Ratio4=4210752   Ratio5=Black   RatioNotD=Gray4   RatioNotC=Black   RatioVal1=0.5 _
        RatioVal2=0.7   RatioVal3=0.9   RatioVal4=1   DFillPos=Gray8Dark   DFillNeg=Gray8Dark   DFillRPos=4210752   DFillRNeg=4210752
   DeviceType="Color Printer"   Contour1=13107400   Contour2=6553828   Contour3=Red   Contour4=16639   Contour5=Orange   Contour6=43775   Contour7=54527   Contour8=Yellow   Contour9=65408   Contour10=Green   Contour11=8453888 _
        Contour12=Cyan   Contour13=16755200   Contour14=16733440   Contour15=Blue   Transpare=0   Ratio1=Cyan   Ratio2=Green   Ratio3=Yellow   Ratio4=Orange   Ratio5=Red   RatioNotD=Gray4   RatioNotC=Red   RatioVal1=0.5   RatioVal2=0.7 _
        RatioVal3=0.9   RatioVal4=1   DFillPos=Blue   DFillNeg=Red   DFillRPos=Green   DFillRNeg=Green
 
TABLE:  "PREFERENCES - ALUMINUM DESIGN - AA-ASD 2000"
   THDesign=Envelopes   FrameType="Moment Frame"   SRatioLimit=1   MaxIter=1   LatFact=1.33333333333333   UseLatFact=No   Bridge=No
 
TABLE:  "PREFERENCES - COLD FORMED DESIGN - AISI-ASD96"
   THDesign=Envelopes   FrameType="Braced Frame"   SRatioLimit=1   MaxIter=1   OmegaBS=1.67   OmegaBUS=1.67   OmegaBLTB=1.67   OmegaVS=1.67   OmegaVNS=1.5   OmegaT=1.67   OmegaC=1.8
 
TABLE:  "PREFERENCES - CONCRETE DESIGN - ACI 318-14"
   THDesign=Envelopes   NumCurves=24   NumPoints=11   MinEccen=Yes   PatLLF=0.75   UFLimit=0.95   SeisCat=D   Rho=1   Sds=0.5   PhiT=0.9   PhiCTied=0.65   PhiCSpiral=0.75   PhiV=0.75   PhiVSeismic=0.6   PhiVJoint=0.85
 
TABLE:  "PREFERENCES - DIMENSIONAL"
   MergeTol=0.001   FineGrid=0.25   Nudge=0.25   SelectTol=3   SnapTol=12   SLineThick=2   PLineThick=4   MaxFont=8   MinFont=3   AutoZoom=10   ShrinkFact=70   TextFileLen=240
 
TABLE:  "PREFERENCES - STEEL DESIGN - AISC 360-10"
   THDesign=Envelopes   FrameType=SMF   PatLLF=0.75   SRatioLimit=0.95   MaxIter=1   SDC=D   SeisCode=Yes   SeisLoad=Yes   ImpFactor=1   SystemRho=1   SystemSds=0.5   SystemR=8   SystemCd=5.5   Omega0=3   Provision=LRFD _
        AMethod="Direct Analysis"   SOMethod="General 2nd Order"   SRMethod="Tau-b Fixed"   NLCoeff=0.002   PhiB=0.9   PhiC=0.9   PhiTY=0.9   PhiTF=0.75   PhiV=0.9   PhiVRolledI=1   PhiVT=0.9   PlugWeld=Yes   HSSWelding=ERW   HSSReduceT=No _
        CheckDefl=No   DLRat=120   SDLAndLLRat=120   LLRat=360   TotalRat=240   NetRat=240
 
TABLE:  "PROGRAM CONTROL"
   ProgramName=SAP2000   Version=20.2.0   CurrUnits="KN, m, C"   SteelCode="AISC 360-10"   ConcCode="ACI 318-14"   AlumCode="AA-ASD 2000"   ColdCode=AISI-ASD96   RegenHinge=Yes
 
TABLE:  "PROJECT INFORMATION"
   Item="Company Name"
   Item="Client Name"
   Item="Project Name"
   Item="Project Number"
   Item="Model Name"
   Item="Model Description"
   Item="Revision Number"
   Item="Frame Type"
   Item=Engineer
   Item=Checker
   Item=Supervisor
   Item="Issue Code"
   Item="Design Code"
 
TABLE:  "REBAR SIZES"
   RebarID=#2   Area=3.2258E-05   Diameter=0.00635
   RebarID=#3   Area=7.09675996154547E-05   Diameter=0.009525
   RebarID=#4   Area=0.000129032001922727   Diameter=0.0127
   RebarID=#5   Area=0.000199999601538181   Diameter=0.015875
   RebarID=#6   Area=0.000283870398461819   Diameter=0.01905
   RebarID=#7   Area=0.000387096015381813   Diameter=0.022225
   RebarID=#8   Area=0.000509676413843632   Diameter=0.0254
   RebarID=#9   Area=0.00064516   Diameter=0.0286512005329132
   RebarID=#10   Area=0.00081935318769455   Diameter=0.0322579995155334
   RebarID=#11   Area=0.00100644956308365   Diameter=0.0358139991521835
   RebarID=#14   Area=0.00145161   Diameter=0.0430021989583969
   RebarID=#18   Area=0.00258064   Diameter=0.0573277992248535
   RebarID=10M   Area=0.000100000002655387   Diameter=0.011300000667572
   RebarID=15M   Area=0.000200000005310774   Diameter=0.0159999999403954
   RebarID=20M   Area=0.000300000017579794   Diameter=0.0194999997854233
   RebarID=25M   Area=0.000500000022890568   Diameter=0.0252000016093254
   RebarID=30M   Area=0.000700000008974075   Diameter=0.0299000008821487
   RebarID=35M   Area=0.00100000004578114   Diameter=0.0357000011444092
   RebarID=45M   Area=0.00150000010712624   Diameter=0.0437000003576279
   RebarID=55M   Area=0.00250000007599831   Diameter=0.0564000033855438
   RebarID=6d   Area=2.83000004149973E-05   Diameter=0.006000000166893
   RebarID=8d   Area=5.02999995571375E-05   Diameter=0.00799999997019768
   RebarID=10d   Area=7.85000013634562E-05   Diameter=0.00999999977350235
   RebarID=12d   Area=0.000113000009249449   Diameter=0.012000000333786
   RebarID=14d   Area=0.000154000010818839   Diameter=0.0140000008940697
   RebarID=16d   Area=0.000201000015431643   Diameter=0.0159999999403954
   RebarID=20d   Area=0.000314000005453825   Diameter=0.0199999995470047
   RebarID=25d   Area=0.000491000008711815   Diameter=0.0250000001907349
   RebarID=26d   Area=0.000531000029001236   Diameter=0.0259999997138977
   RebarID=28d   Area=0.000616000043275356   Diameter=0.0280000017881393
   RebarID=N12   Area=0.000113000009249449   Diameter=0.012000000333786
   RebarID=N16   Area=0.000201000015431643   Diameter=0.0159999999403954
   RebarID=N20   Area=0.000314000005453825   Diameter=0.0199999995470047
   RebarID=N24   Area=0.000452000036997795   Diameter=0.024000000667572
   RebarID=N28   Area=0.000616000043275356   Diameter=0.0280000017881393
   RebarID=N32   Area=0.00080400006172657   Diameter=0.0319999998807907
   RebarID=N36   Area=0.00102000001747131   Diameter=0.036000001001358
 
TABLE:  "SOLID PROPERTY DEFINITIONS"
   SolidProp=Solid1   Material=4000Psi   MatAngleA=0   MatAngleB=0   MatAngleC=0   InComp=Yes   Color=Gray8Dark
 
END TABLE DATA
